L72
  xtb     12232207053D
xtb: 6.4.1 (afa7bdf)
 38 42  0     0  0            999 V2000
    1.3870   -1.5656    0.9163 O   0  0  0  0  0  0  0  0  0  0  0  0
    1.4774   -0.6157    0.1492 C   0  0  0  0  0  0  0  0  0  0  0  0
    2.8275   -0.3365   -0.4852 C   0  0  0  0  0  3  0  0  0  0  0  0
    3.7869   -1.3342   -0.4750 C   0  0  0  0  0  3  0  0  0  0  0  0
    5.0226   -1.0938   -1.0593 C   0  0  0  0  0  3  0  0  0  0  0  0
    5.2751    0.1368   -1.6327 C   0  0  0  0  0  3  0  0  0  0  0  0
    4.2669    1.0991   -1.5979 C   0  0  0  0  0  3  0  0  0  0  0  0
    4.4786    2.3059   -2.1322 O   0  0  0  0  0  0  0  0  0  0  0  0
    3.0822    0.8629   -1.0413 N   0  0  0  0  0  0  0  0  0  0  0  0
    1.4229    1.8725   -0.7588 Cu  0  0  0  0  0  2  0  0  0  0  0  0
    0.5245    0.2609   -0.1990 N   0  0  0  0  0  0  0  0  0  0  0  0
   -0.7949    0.0977    0.1782 C   0  0  0  0  0  0  0  0  0  0  0  0
   -1.4678   -1.1368    0.0294 C   0  0  0  0  0  0  0  0  0  0  0  0
   -0.9072   -2.2245   -0.6808 C   0  0  0  0  0  0  0  0  0  0  0  0
   -1.5601   -3.4169   -0.7799 C   0  0  0  0  0  0  0  0  0  0  0  0
   -2.8190   -3.5933   -0.1756 C   0  0  0  0  0  0  0  0  0  0  0  0
   -3.4162   -2.5542    0.4695 C   0  0  0  0  0  0  0  0  0  0  0  0
   -2.7797   -1.2916    0.5721 C   0  0  0  0  0  0  0  0  0  0  0  0
   -3.4145   -0.2106    1.1785 C   0  0  0  0  0  0  0  0  0  0  0  0
   -2.8237    1.0474    1.1995 C   0  0  0  0  0  0  0  0  0  0  0  0
   -3.4922    2.1741    1.7435 C   0  0  0  0  0  0  0  0  0  0  0  0
   -2.9191    3.4083    1.7502 C   0  0  0  0  0  0  0  0  0  0  0  0
   -1.6388    3.5936    1.1905 C   0  0  0  0  0  0  0  0  0  0  0  0
   -0.9673    2.5251    0.6803 C   0  0  0  0  0  0  0  0  0  0  0  0
   -1.5046    1.2187    0.6743 C   0  0  0  0  0  0  0  0  0  0  0  0
    3.5409   -2.2725   -0.0049 H   0  0  0  0  0  0  0  0  0  0  0  0
    5.7829   -1.8596   -1.0662 H   0  0  0  0  0  0  0  0  0  0  0  0
    6.2152    0.3808   -2.0974 H   0  0  0  0  0  0  0  0  0  0  0  0
    3.6836    2.8558   -2.0270 H   0  0  0  0  0  0  0  0  0  0  0  0
    0.0447   -2.0942   -1.1725 H   0  0  0  0  0  0  0  0  0  0  0  0
   -1.1177   -4.2349   -1.3295 H   0  0  0  0  0  0  0  0  0  0  0  0
   -3.3130   -4.5517   -0.2490 H   0  0  0  0  0  0  0  0  0  0  0  0
   -4.3990   -2.6659    0.9059 H   0  0  0  0  0  0  0  0  0  0  0  0
   -4.3909   -0.3473    1.6213 H   0  0  0  0  0  0  0  0  0  0  0  0
   -4.4837    2.0277    2.1481 H   0  0  0  0  0  0  0  0  0  0  0  0
   -3.4401    4.2579    2.1661 H   0  0  0  0  0  0  0  0  0  0  0  0
   -1.2051    4.5826    1.1680 H   0  0  0  0  0  0  0  0  0  0  0  0
    0.0357    2.6919    0.2232 H   0  0  0  0  0  0  0  0  0  0  0  0
  1  2  2  0  0  0  0
  2  3  1  0  0  0  0
  2 11  1  0  0  0  0
  3  4  1  0  0  0  0
  3  9  1  0  0  0  0
  4  5  1  0  0  0  0
  4 26  1  0  0  0  0
  5  6  1  0  0  0  0
  5 27  1  0  0  0  0
  6  7  1  0  0  0  0
  6 28  1  0  0  0  0
  7  8  1  0  0  0  0
  7  9  1  0  0  0  0
  8 29  1  0  0  0  0
  9 10  1  0  0  0  0
 10 11  1  0  0  0  0
 11 12  1  0  0  0  0
 12 13  2  0  0  0  0
 12 25  1  0  0  0  0
 13 14  1  0  0  0  0
 13 18  1  0  0  0  0
 14 15  2  0  0  0  0
 14 30  1  0  0  0  0
 15 16  1  0  0  0  0
 15 31  1  0  0  0  0
 16 17  2  0  0  0  0
 16 32  1  0  0  0  0
 17 18  1  0  0  0  0
 17 33  1  0  0  0  0
 18 19  2  0  0  0  0
 19 20  1  0  0  0  0
 19 34  1  0  0  0  0
 20 21  2  0  0  0  0
 20 25  1  0  0  0  0
 21 22  1  0  0  0  0
 21 35  1  0  0  0  0
 22 23  2  0  0  0  0
 22 36  1  0  0  0  0
 23 24  1  0  0  0  0
 23 37  1  0  0  0  0
 24 25  2  0  0  0  0
 24 38  1  0  0  0  0
M  END
> <total energy / Eh>
    -67.366454692349

> <gradient norm / Eh/a0>
      0.000378828578

$$$$
