L97
  xtb     01102303193D
xtb: 6.4.1 (afa7bdf)
 46 50  0     0  0            999 V2000
    7.1531    0.0183   -1.9955 C   0  0  0  0  0  0  0  0  0  0  0  0
    6.2813    0.8471   -1.2588 O   0  0  0  0  0  0  0  0  0  0  0  0
    4.9555    0.5116   -1.2263 C   0  0  0  0  0  3  0  0  0  0  0  0
    4.3511   -0.5614   -1.8548 C   0  0  0  0  0  3  0  0  0  0  0  0
    2.9800   -0.7369   -1.7070 C   0  0  0  0  0  3  0  0  0  0  0  0
    2.2513    0.1451   -0.9338 C   0  0  0  0  0  3  0  0  0  0  0  0
    2.8459    1.1937   -0.3340 N   0  0  0  0  0  0  0  0  0  0  0  0
    4.1438    1.3832   -0.4662 C   0  0  0  0  0  3  0  0  0  0  0  0
    4.6698    2.4514    0.1528 O   0  0  0  0  0  0  0  0  0  0  0  0
    1.3718    2.1174    0.6299 Cu  0  0  0  0  0  2  0  0  0  0  0  0
    0.2760    0.5399    0.3109 N   0  0  0  0  0  0  0  0  0  0  0  0
   -1.0931    0.4972    0.5306 N   0  0  0  0  0  0  0  0  0  0  0  0
   -1.8192    1.6502    0.6028 C   0  0  0  0  0  0  0  0  0  0  0  0
   -1.3733    2.9655    0.6112 C   0  0  0  0  0  0  0  0  0  0  0  0
   -2.3073    3.9735    0.7222 C   0  0  0  0  0  0  0  0  0  0  0  0
   -3.6681    3.6767    0.8157 C   0  0  0  0  0  0  0  0  0  0  0  0
   -4.1198    2.3710    0.8245 C   0  0  0  0  0  0  0  0  0  0  0  0
   -3.1957    1.3395    0.7270 C   0  0  0  0  0  0  0  0  0  0  0  0
   -3.2730   -0.0905    0.7473 C   0  0  0  0  0  0  0  0  0  0  0  0
   -4.3466   -0.9639    0.8795 C   0  0  0  0  0  0  0  0  0  0  0  0
   -4.1023   -2.3204    0.9371 C   0  0  0  0  0  0  0  0  0  0  0  0
   -5.2238   -3.3102    1.0585 C   0  0  0  0  0  0  0  0  0  0  0  0
   -2.7813   -2.7797    0.9015 C   0  0  0  0  0  0  0  0  0  0  0  0
   -1.6840   -1.9477    0.7738 C   0  0  0  0  0  0  0  0  0  0  0  0
   -0.2977   -2.5161    0.8092 C   0  0  0  0  0  0  0  0  0  0  0  0
   -1.9458   -0.5808    0.6470 C   0  0  0  0  0  0  0  0  0  0  0  0
    0.7544   -0.0407   -0.7948 C   0  0  0  0  0  0  0  0  0  0  0  0
    0.1544   -0.7028   -1.6329 O   0  0  0  0  0  0  0  0  0  0  0  0
    7.1646   -0.9994   -1.5948 H   0  0  0  0  0  0  0  0  0  0  0  0
    6.8782   -0.0070   -3.0540 H   0  0  0  0  0  0  0  0  0  0  0  0
    8.1407    0.4624   -1.8873 H   0  0  0  0  0  0  0  0  0  0  0  0
    4.9219   -1.2548   -2.4516 H   0  0  0  0  0  0  0  0  0  0  0  0
    2.4628   -1.5504   -2.1887 H   0  0  0  0  0  0  0  0  0  0  0  0
    5.6223    2.4782   -0.0230 H   0  0  0  0  0  0  0  0  0  0  0  0
   -0.2862    3.1922    0.5485 H   0  0  0  0  0  0  0  0  0  0  0  0
   -1.9878    5.0053    0.7360 H   0  0  0  0  0  0  0  0  0  0  0  0
   -4.3751    4.4893    0.8915 H   0  0  0  0  0  0  0  0  0  0  0  0
   -5.1740    2.1546    0.9127 H   0  0  0  0  0  0  0  0  0  0  0  0
   -5.3531   -0.5775    0.9455 H   0  0  0  0  0  0  0  0  0  0  0  0
   -6.1709   -2.8043    1.2296 H   0  0  0  0  0  0  0  0  0  0  0  0
   -5.3082   -3.8984    0.1444 H   0  0  0  0  0  0  0  0  0  0  0  0
   -5.0418   -3.9995    1.8821 H   0  0  0  0  0  0  0  0  0  0  0  0
   -2.6098   -3.8437    0.9935 H   0  0  0  0  0  0  0  0  0  0  0  0
    0.3616   -1.8883    1.4067 H   0  0  0  0  0  0  0  0  0  0  0  0
    0.1084   -2.5695   -0.1992 H   0  0  0  0  0  0  0  0  0  0  0  0
   -0.3112   -3.5192    1.2303 H   0  0  0  0  0  0  0  0  0  0  0  0
  1  2  1  0  0  0  0
  1 29  1  0  0  0  0
  1 30  1  0  0  0  0
  1 31  1  0  0  0  0
  2  3  1  0  0  0  0
  3  4  1  0  0  0  0
  3  8  1  0  0  0  0
  4  5  1  0  0  0  0
  4 32  1  0  0  0  0
  5  6  1  0  0  0  0
  5 33  1  0  0  0  0
  6  7  1  0  0  0  0
  6 27  1  0  0  0  0
  7  8  1  0  0  0  0
  7 10  1  0  0  0  0
  8  9  1  0  0  0  0
  9 34  1  0  0  0  0
 10 11  1  0  0  0  0
 11 12  1  0  0  0  0
 11 27  1  0  0  0  0
 12 13  1  0  0  0  0
 12 26  1  0  0  0  0
 13 14  2  0  0  0  0
 13 18  1  0  0  0  0
 14 15  1  0  0  0  0
 14 35  1  0  0  0  0
 15 16  2  0  0  0  0
 15 36  1  0  0  0  0
 16 17  1  0  0  0  0
 16 37  1  0  0  0  0
 17 18  2  0  0  0  0
 17 38  1  0  0  0  0
 18 19  1  0  0  0  0
 19 20  2  0  0  0  0
 19 26  1  0  0  0  0
 20 21  1  0  0  0  0
 20 39  1  0  0  0  0
 21 22  1  0  0  0  0
 21 23  2  0  0  0  0
 22 40  1  0  0  0  0
 22 41  1  0  0  0  0
 22 42  1  0  0  0  0
 23 24  1  0  0  0  0
 23 43  1  0  0  0  0
 24 25  1  0  0  0  0
 24 26  2  0  0  0  0
 25 44  1  0  0  0  0
 25 45  1  0  0  0  0
 25 46  1  0  0  0  0
 27 28  2  0  0  0  0
M  END
> <total energy / Eh>
    -79.066597411441

> <gradient norm / Eh/a0>
      0.000621676444

$$$$
