L106
  xtb     09042310193D
xtb: 6.4.1 (afa7bdf)
 52 56  0     0  0            999 V2000
    2.8614   -2.6385   -2.9467 C   0  0  0  0  0  0  0  0  0  0  0  0
    3.7221   -2.1363   -1.9139 N   0  0  0  0  0  0  0  0  0  0  0  0
    4.9926   -2.7925   -1.7216 C   0  0  0  0  0  0  0  0  0  0  0  0
    3.1924   -1.3230   -0.9407 C   0  0  0  0  0  3  0  0  0  0  0  0
    3.8897   -1.0468    0.2495 C   0  0  0  0  0  3  0  0  0  0  0  0
    3.4060   -0.1763    1.2099 C   0  0  0  0  0  3  0  0  0  0  0  0
    2.1446    0.3827    1.0616 C   0  0  0  0  0  3  0  0  0  0  0  0
    1.2671    1.1961    1.8564 C   0  0  0  0  0  3  0  0  0  0  0  0
    1.3775    1.8378    3.0800 C   0  0  0  0  0  3  0  0  0  0  0  0
    0.2959    2.5282    3.5868 C   0  0  0  0  0  3  0  0  0  0  0  0
   -0.9360    2.5934    2.9077 C   0  0  0  0  0  3  0  0  0  0  0  0
   -2.0305    3.2343    3.4625 N   0  0  0  0  0  0  0  0  0  0  0  0
   -1.9476    3.7769    4.7949 C   0  0  0  0  0  0  0  0  0  0  0  0
   -2.9787    3.9350    2.6269 C   0  0  0  0  0  0  0  0  0  0  0  0
   -1.0617    1.9330    1.6810 C   0  0  0  0  0  3  0  0  0  0  0  0
    0.0289    1.2654    1.1677 C   0  0  0  0  0  3  0  0  0  0  0  0
    0.1490    0.5698   -0.0272 N   0  0  0  0  0  0  0  0  0  0  0  0
   -0.7632   -0.0846   -0.8190 N   0  0  0  0  0  0  0  0  0  0  0  0
    0.0286   -1.7563   -1.6246 Cu  0  0  0  0  0  2  0  0  0  0  0  0
   -1.8874   -1.9207   -2.3042 N   0  0  0  0  0  0  0  0  0  0  0  0
   -2.4340   -2.8755   -3.0479 C   0  0  0  0  0  3  0  0  0  0  0  0
   -1.6663   -3.9244   -3.3798 O   0  0  0  0  0  0  0  0  0  0  0  0
   -3.7555   -2.8229   -3.4860 C   0  0  0  0  0  3  0  0  0  0  0  0
   -4.5156   -1.7255   -3.1267 C   0  0  0  0  0  3  0  0  0  0  0  0
   -3.9453   -0.7280   -2.3525 C   0  0  0  0  0  3  0  0  0  0  0  0
   -2.6249   -0.8487   -1.9495 C   0  0  0  0  0  3  0  0  0  0  0  0
   -2.0144    0.2371   -1.0871 C   0  0  0  0  0  0  0  0  0  0  0  0
   -2.6941    1.2104   -0.7586 O   0  0  0  0  0  0  0  0  0  0  0  0
    1.4154    0.0648   -0.0998 C   0  0  0  0  0  3  0  0  0  0  0  0
    1.9146   -0.7440   -1.1472 C   0  0  0  0  0  3  0  0  0  0  0  0
    3.2848   -3.5414   -3.3820 H   0  0  0  0  0  0  0  0  0  0  0  0
    2.7147   -1.9036   -3.7446 H   0  0  0  0  0  0  0  0  0  0  0  0
    1.8551   -2.8773   -2.5308 H   0  0  0  0  0  0  0  0  0  0  0  0
    5.7531   -2.0614   -1.4472 H   0  0  0  0  0  0  0  0  0  0  0  0
    5.3012   -3.2558   -2.6566 H   0  0  0  0  0  0  0  0  0  0  0  0
    4.9492   -3.5649   -0.9443 H   0  0  0  0  0  0  0  0  0  0  0  0
    4.8506   -1.5018    0.4225 H   0  0  0  0  0  0  0  0  0  0  0  0
    3.9995    0.0335    2.0872 H   0  0  0  0  0  0  0  0  0  0  0  0
    2.3079    1.8122    3.6288 H   0  0  0  0  0  0  0  0  0  0  0  0
    0.4197    3.0423    4.5263 H   0  0  0  0  0  0  0  0  0  0  0  0
   -1.5321    3.0354    5.4760 H   0  0  0  0  0  0  0  0  0  0  0  0
   -2.9573    4.0167    5.1303 H   0  0  0  0  0  0  0  0  0  0  0  0
   -1.3428    4.6935    4.8493 H   0  0  0  0  0  0  0  0  0  0  0  0
   -2.7513    5.0096    2.5889 H   0  0  0  0  0  0  0  0  0  0  0  0
   -2.9693    3.5492    1.6134 H   0  0  0  0  0  0  0  0  0  0  0  0
   -3.9847    3.8102    3.0353 H   0  0  0  0  0  0  0  0  0  0  0  0
   -1.9838    1.9250    1.1251 H   0  0  0  0  0  0  0  0  0  0  0  0
   -0.7843   -3.8103   -2.9861 H   0  0  0  0  0  0  0  0  0  0  0  0
   -4.1438   -3.6304   -4.0832 H   0  0  0  0  0  0  0  0  0  0  0  0
   -5.5437   -1.6517   -3.4476 H   0  0  0  0  0  0  0  0  0  0  0  0
   -4.4896    0.1492   -2.0417 H   0  0  0  0  0  0  0  0  0  0  0  0
    1.6163   -0.4993   -2.1703 H   0  0  0  0  0  0  0  0  0  0  0  0
  1  2  1  0  0  0  0
  1 31  1  0  0  0  0
  1 32  1  0  0  0  0
  1 33  1  0  0  0  0
  2  3  1  0  0  0  0
  2  4  1  0  0  0  0
  3 34  1  0  0  0  0
  3 35  1  0  0  0  0
  3 36  1  0  0  0  0
  4  5  1  0  0  0  0
  4 30  1  0  0  0  0
  5  6  1  0  0  0  0
  5 37  1  0  0  0  0
  6  7  1  0  0  0  0
  6 38  1  0  0  0  0
  7  8  1  0  0  0  0
  7 29  1  0  0  0  0
  8  9  1  0  0  0  0
  8 16  1  0  0  0  0
  9 10  1  0  0  0  0
  9 39  1  0  0  0  0
 10 11  1  0  0  0  0
 10 40  1  0  0  0  0
 11 12  1  0  0  0  0
 11 15  1  0  0  0  0
 12 13  1  0  0  0  0
 12 14  1  0  0  0  0
 13 41  1  0  0  0  0
 13 42  1  0  0  0  0
 13 43  1  0  0  0  0
 14 44  1  0  0  0  0
 14 45  1  0  0  0  0
 14 46  1  0  0  0  0
 15 16  1  0  0  0  0
 15 47  1  0  0  0  0
 16 17  1  0  0  0  0
 17 18  1  0  0  0  0
 17 29  1  0  0  0  0
 18 19  1  0  0  0  0
 18 27  1  0  0  0  0
 19 20  1  0  0  0  0
 20 21  1  0  0  0  0
 20 26  1  0  0  0  0
 21 22  1  0  0  0  0
 21 23  1  0  0  0  0
 22 48  1  0  0  0  0
 23 24  1  0  0  0  0
 23 49  1  0  0  0  0
 24 25  1  0  0  0  0
 24 50  1  0  0  0  0
 25 26  1  0  0  0  0
 25 51  1  0  0  0  0
 26 27  1  0  0  0  0
 27 28  2  0  0  0  0
 29 30  1  0  0  0  0
 30 52  1  0  0  0  0
M  END
> <total energy / Eh>
    -85.034673701303

> <gradient norm / Eh/a0>
      0.000644169895

$$$$
