L76
  xtb     12232207053D
xtb: 6.4.1 (afa7bdf)
 56 62  0     0  0            999 V2000
    2.8029   -2.8463   -0.1534 O   0  0  0  0  0  0  0  0  0  0  0  0
    3.1995   -1.8395    0.4251 C   0  0  0  0  0  0  0  0  0  0  0  0
    4.6318   -1.8003    0.9139 C   0  0  0  0  0  3  0  0  0  0  0  0
    5.5008   -2.7915    0.4898 C   0  0  0  0  0  3  0  0  0  0  0  0
    6.8175   -2.7753    0.9256 C   0  0  0  0  0  3  0  0  0  0  0  0
    7.2366   -1.7766    1.7830 C   0  0  0  0  0  3  0  0  0  0  0  0
    6.3053   -0.8191    2.1817 C   0  0  0  0  0  3  0  0  0  0  0  0
    6.6723    0.1562    3.0198 O   0  0  0  0  0  0  0  0  0  0  0  0
    5.0450   -0.8335    1.7575 N   0  0  0  0  0  0  0  0  0  0  0  0
    3.4489    0.2914    2.0907 Cu  0  0  0  0  0  2  0  0  0  0  0  0
    2.5448   -0.7066    0.6825 N   0  0  0  0  0  0  0  0  0  0  0  0
    1.2314   -0.5081    0.3151 N   0  0  0  0  0  0  0  0  0  0  0  0
    0.5363   -0.8599   -0.8222 C   0  0  0  0  0  0  0  0  0  0  0  0
    0.9237   -1.5870   -1.9415 C   0  0  0  0  0  0  0  0  0  0  0  0
    0.0110   -1.7452   -2.9618 C   0  0  0  0  0  0  0  0  0  0  0  0
   -1.2784   -1.1957   -2.9109 C   0  0  0  0  0  0  0  0  0  0  0  0
   -2.2039   -1.3755   -4.0386 C   0  0  0  0  0  0  0  0  0  0  0  0
   -1.7495   -1.2817   -5.3526 C   0  0  0  0  0  0  0  0  0  0  0  0
   -2.6206   -1.4396   -6.4139 C   0  0  0  0  0  0  0  0  0  0  0  0
   -3.9615   -1.6968   -6.1829 C   0  0  0  0  0  0  0  0  0  0  0  0
   -4.4249   -1.7941   -4.8815 C   0  0  0  0  0  0  0  0  0  0  0  0
   -3.5554   -1.6334   -3.8191 C   0  0  0  0  0  0  0  0  0  0  0  0
   -1.6629   -0.4663   -1.7947 C   0  0  0  0  0  0  0  0  0  0  0  0
   -0.7607   -0.2865   -0.7576 C   0  0  0  0  0  0  0  0  0  0  0  0
   -0.8279    0.4593    0.4652 C   0  0  0  0  0  0  0  0  0  0  0  0
   -1.7921    1.2514    1.0660 C   0  0  0  0  0  0  0  0  0  0  0  0
   -1.4992    1.9032    2.2593 C   0  0  0  0  0  0  0  0  0  0  0  0
   -2.5036    2.7642    2.9007 C   0  0  0  0  0  0  0  0  0  0  0  0
   -3.8416    2.3786    2.9524 C   0  0  0  0  0  0  0  0  0  0  0  0
   -4.7875    3.1914    3.5483 C   0  0  0  0  0  0  0  0  0  0  0  0
   -4.4153    4.4055    4.1008 C   0  0  0  0  0  0  0  0  0  0  0  0
   -3.0889    4.8004    4.0543 C   0  0  0  0  0  0  0  0  0  0  0  0
   -2.1413    3.9872    3.4615 C   0  0  0  0  0  0  0  0  0  0  0  0
   -0.2337    1.7505    2.8470 C   0  0  0  0  0  0  0  0  0  0  0  0
    0.7294    0.9495    2.2745 C   0  0  0  0  0  0  0  0  0  0  0  0
    0.4378    0.3017    1.0814 C   0  0  0  0  0  0  0  0  0  0  0  0
    5.1191   -3.5517   -0.1725 H   0  0  0  0  0  0  0  0  0  0  0  0
    7.5118   -3.5339    0.5986 H   0  0  0  0  0  0  0  0  0  0  0  0
    8.2453   -1.7118    2.1535 H   0  0  0  0  0  0  0  0  0  0  0  0
    5.9157    0.7409    3.1955 H   0  0  0  0  0  0  0  0  0  0  0  0
    1.8980   -2.0406   -2.0024 H   0  0  0  0  0  0  0  0  0  0  0  0
    0.2929   -2.3272   -3.8268 H   0  0  0  0  0  0  0  0  0  0  0  0
   -0.7082   -1.0630   -5.5405 H   0  0  0  0  0  0  0  0  0  0  0  0
   -2.2530   -1.3582   -7.4270 H   0  0  0  0  0  0  0  0  0  0  0  0
   -4.6417   -1.8209   -7.0129 H   0  0  0  0  0  0  0  0  0  0  0  0
   -5.4695   -1.9989   -4.6947 H   0  0  0  0  0  0  0  0  0  0  0  0
   -3.9204   -1.7276   -2.8066 H   0  0  0  0  0  0  0  0  0  0  0  0
   -2.6412   -0.0115   -1.7453 H   0  0  0  0  0  0  0  0  0  0  0  0
   -2.7538    1.3880    0.5952 H   0  0  0  0  0  0  0  0  0  0  0  0
   -4.1358    1.4252    2.5384 H   0  0  0  0  0  0  0  0  0  0  0  0
   -5.8203    2.8759    3.5846 H   0  0  0  0  0  0  0  0  0  0  0  0
   -5.1552    5.0413    4.5644 H   0  0  0  0  0  0  0  0  0  0  0  0
   -2.7926    5.7491    4.4784 H   0  0  0  0  0  0  0  0  0  0  0  0
   -1.1120    4.3124    3.4110 H   0  0  0  0  0  0  0  0  0  0  0  0
   -0.0270    2.2525    3.7805 H   0  0  0  0  0  0  0  0  0  0  0  0
    1.7220    0.8277    2.7634 H   0  0  0  0  0  0  0  0  0  0  0  0
  1  2  2  0  0  0  0
  2  3  1  0  0  0  0
  2 11  1  0  0  0  0
  3  4  1  0  0  0  0
  3  9  1  0  0  0  0
  4  5  1  0  0  0  0
  4 37  1  0  0  0  0
  5  6  1  0  0  0  0
  5 38  1  0  0  0  0
  6  7  1  0  0  0  0
  6 39  1  0  0  0  0
  7  8  1  0  0  0  0
  7  9  1  0  0  0  0
  8 40  1  0  0  0  0
  9 10  1  0  0  0  0
 10 11  1  0  0  0  0
 11 12  1  0  0  0  0
 12 13  1  0  0  0  0
 12 36  1  0  0  0  0
 13 14  2  0  0  0  0
 13 24  1  0  0  0  0
 14 15  1  0  0  0  0
 14 41  1  0  0  0  0
 15 16  2  0  0  0  0
 15 42  1  0  0  0  0
 16 17  1  0  0  0  0
 16 23  1  0  0  0  0
 17 18  2  0  0  0  0
 17 22  1  0  0  0  0
 18 19  1  0  0  0  0
 18 43  1  0  0  0  0
 19 20  2  0  0  0  0
 19 44  1  0  0  0  0
 20 21  1  0  0  0  0
 20 45  1  0  0  0  0
 21 22  2  0  0  0  0
 21 46  1  0  0  0  0
 22 47  1  0  0  0  0
 23 24  2  0  0  0  0
 23 48  1  0  0  0  0
 24 25  1  0  0  0  0
 25 26  2  0  0  0  0
 25 36  1  0  0  0  0
 26 27  1  0  0  0  0
 26 49  1  0  0  0  0
 27 28  1  0  0  0  0
 27 34  2  0  0  0  0
 28 29  2  0  0  0  0
 28 33  1  0  0  0  0
 29 30  1  0  0  0  0
 29 50  1  0  0  0  0
 30 31  2  0  0  0  0
 30 51  1  0  0  0  0
 31 32  1  0  0  0  0
 31 52  1  0  0  0  0
 32 33  2  0  0  0  0
 32 53  1  0  0  0  0
 33 54  1  0  0  0  0
 34 35  1  0  0  0  0
 34 55  1  0  0  0  0
 35 36  2  0  0  0  0
 35 56  1  0  0  0  0
M  END
> <total energy / Eh>
    -95.276192634747

> <gradient norm / Eh/a0>
      0.000225331145

$$$$
