L75
  xtb     12232207053D
xtb: 6.4.1 (afa7bdf)
 48 54  0     0  0            999 V2000
    2.0622   -1.1433   -1.6113 O   0  0  0  0  0  0  0  0  0  0  0  0
    2.3736   -0.5525   -0.5855 C   0  0  0  0  0  0  0  0  0  0  0  0
    3.8150   -0.1313   -0.3971 C   0  0  0  0  0  3  0  0  0  0  0  0
    4.7430   -0.5436   -1.3370 C   0  0  0  0  0  3  0  0  0  0  0  0
    6.0731   -0.1773   -1.1871 C   0  0  0  0  0  3  0  0  0  0  0  0
    6.4459    0.5978   -0.1069 C   0  0  0  0  0  3  0  0  0  0  0  0
    5.4580    0.9859    0.7964 C   0  0  0  0  0  3  0  0  0  0  0  0
    5.7776    1.7437    1.8492 O   0  0  0  0  0  0  0  0  0  0  0  0
    4.1854    0.6263    0.6528 N   0  0  0  0  0  0  0  0  0  0  0  0
    2.5240    0.9939    1.5820 Cu  0  0  0  0  0  2  0  0  0  0  0  0
    1.5735   -0.2386    0.4464 N   0  0  0  0  0  0  0  0  0  0  0  0
    0.2679   -0.6956    0.3562 N   0  0  0  0  0  0  0  0  0  0  0  0
   -0.0398   -2.0044    0.0954 C   0  0  0  0  0  0  0  0  0  0  0  0
    0.7968   -3.1128    0.1445 C   0  0  0  0  0  0  0  0  0  0  0  0
    0.2417   -4.3473   -0.1028 C   0  0  0  0  0  0  0  0  0  0  0  0
   -1.1209   -4.4760   -0.3747 C   0  0  0  0  0  0  0  0  0  0  0  0
   -1.9551   -3.3809   -0.4076 C   0  0  0  0  0  0  0  0  0  0  0  0
   -1.4256   -2.1092   -0.1800 C   0  0  0  0  0  0  0  0  0  0  0  0
   -1.9462   -0.7762   -0.0992 C   0  0  0  0  0  0  0  0  0  0  0  0
   -3.2269   -0.2172   -0.3893 C   0  0  0  0  0  0  0  0  0  0  0  0
   -4.2804   -0.9850   -0.9085 C   0  0  0  0  0  0  0  0  0  0  0  0
   -5.4818   -0.4178   -1.2505 C   0  0  0  0  0  0  0  0  0  0  0  0
   -5.6680    0.9526   -1.0939 C   0  0  0  0  0  0  0  0  0  0  0  0
   -4.6532    1.7269   -0.5868 C   0  0  0  0  0  0  0  0  0  0  0  0
   -3.4194    1.1763   -0.2093 C   0  0  0  0  0  0  0  0  0  0  0  0
   -2.3657    1.9871    0.3643 C   0  0  0  0  0  0  0  0  0  0  0  0
   -2.5788    3.3247    0.7260 C   0  0  0  0  0  0  0  0  0  0  0  0
   -1.6040    4.0885    1.3213 C   0  0  0  0  0  0  0  0  0  0  0  0
   -0.3638    3.5265    1.6075 C   0  0  0  0  0  0  0  0  0  0  0  0
   -0.1266    2.2207    1.2615 C   0  0  0  0  0  0  0  0  0  0  0  0
   -1.0843    1.4249    0.6177 C   0  0  0  0  0  0  0  0  0  0  0  0
   -0.8806    0.0548    0.2751 C   0  0  0  0  0  0  0  0  0  0  0  0
    4.3954   -1.1436   -2.1627 H   0  0  0  0  0  0  0  0  0  0  0  0
    6.8121   -0.4944   -1.9061 H   0  0  0  0  0  0  0  0  0  0  0  0
    7.4615    0.9131    0.0614 H   0  0  0  0  0  0  0  0  0  0  0  0
    4.9813    1.9240    2.3786 H   0  0  0  0  0  0  0  0  0  0  0  0
    1.8460   -3.0063    0.3750 H   0  0  0  0  0  0  0  0  0  0  0  0
    0.8637   -5.2299   -0.0761 H   0  0  0  0  0  0  0  0  0  0  0  0
   -1.5300   -5.4601   -0.5526 H   0  0  0  0  0  0  0  0  0  0  0  0
   -3.0070   -3.5324   -0.5887 H   0  0  0  0  0  0  0  0  0  0  0  0
   -4.1334   -2.0387   -1.0656 H   0  0  0  0  0  0  0  0  0  0  0  0
   -6.2760   -1.0291   -1.6537 H   0  0  0  0  0  0  0  0  0  0  0  0
   -6.6053    1.4081   -1.3783 H   0  0  0  0  0  0  0  0  0  0  0  0
   -4.8220    2.7884   -0.4985 H   0  0  0  0  0  0  0  0  0  0  0  0
   -3.5415    3.7783    0.5558 H   0  0  0  0  0  0  0  0  0  0  0  0
   -1.8045    5.1159    1.5858 H   0  0  0  0  0  0  0  0  0  0  0  0
    0.3963    4.1083    2.1075 H   0  0  0  0  0  0  0  0  0  0  0  0
    0.8472    1.7770    1.5493 H   0  0  0  0  0  0  0  0  0  0  0  0
  1  2  2  0  0  0  0
  2  3  1  0  0  0  0
  2 11  1  0  0  0  0
  3  4  1  0  0  0  0
  3  9  1  0  0  0  0
  4  5  1  0  0  0  0
  4 33  1  0  0  0  0
  5  6  1  0  0  0  0
  5 34  1  0  0  0  0
  6  7  1  0  0  0  0
  6 35  1  0  0  0  0
  7  8  1  0  0  0  0
  7  9  1  0  0  0  0
  8 36  1  0  0  0  0
  9 10  1  0  0  0  0
 10 11  1  0  0  0  0
 11 12  1  0  0  0  0
 12 13  1  0  0  0  0
 12 32  1  0  0  0  0
 13 14  2  0  0  0  0
 13 18  1  0  0  0  0
 14 15  1  0  0  0  0
 14 37  1  0  0  0  0
 15 16  2  0  0  0  0
 15 38  1  0  0  0  0
 16 17  1  0  0  0  0
 16 39  1  0  0  0  0
 17 18  2  0  0  0  0
 17 40  1  0  0  0  0
 18 19  1  0  0  0  0
 19 20  2  0  0  0  0
 19 32  1  0  0  0  0
 20 21  1  0  0  0  0
 20 25  1  0  0  0  0
 21 22  2  0  0  0  0
 21 41  1  0  0  0  0
 22 23  1  0  0  0  0
 22 42  1  0  0  0  0
 23 24  2  0  0  0  0
 23 43  1  0  0  0  0
 24 25  1  0  0  0  0
 24 44  1  0  0  0  0
 25 26  2  0  0  0  0
 26 27  1  0  0  0  0
 26 31  1  0  0  0  0
 27 28  2  0  0  0  0
 27 45  1  0  0  0  0
 28 29  1  0  0  0  0
 28 46  1  0  0  0  0
 29 30  2  0  0  0  0
 29 47  1  0  0  0  0
 30 31  1  0  0  0  0
 30 48  1  0  0  0  0
 31 32  2  0  0  0  0
M  END
> <total energy / Eh>
    -84.691519123272

> <gradient norm / Eh/a0>
      0.000781331859

$$$$
