L82
  xtb     01102303183D
xtb: 6.4.1 (afa7bdf)
 42 46  0     0  0            999 V2000
    1.6204    1.5352    2.1623 C   0  0  0  0  0  0  0  0  0  0  0  0
    1.4315    2.3357    0.8737 C   0  0  0  0  0  0  0  0  0  0  0  0
    2.1187    1.6656   -0.2851 C   0  0  0  0  0  0  0  0  0  0  0  0
    3.3757    2.1084   -0.6667 C   0  0  0  0  0  0  0  0  0  0  0  0
    4.0974    1.5249   -1.7041 C   0  0  0  0  0  0  0  0  0  0  0  0
    3.5737    0.4613   -2.4066 C   0  0  0  0  0  0  0  0  0  0  0  0
    2.3174   -0.0122   -2.0537 C   0  0  0  0  0  0  0  0  0  0  0  0
    1.5881    0.5786   -0.9872 C   0  0  0  0  0  0  0  0  0  0  0  0
    0.3845   -0.0790   -0.8713 N   0  0  0  0  0  0  0  0  0  0  0  0
   -0.6073    0.1755    0.0617 N   0  0  0  0  0  0  0  0  0  0  0  0
   -1.5052    1.7862    0.6347 Cu  0  0  0  0  0  2  0  0  0  0  0  0
   -2.6900    0.7083    1.7498 N   0  0  0  0  0  0  0  0  0  0  0  0
   -3.7225    0.9801    2.5381 C   0  0  0  0  0  3  0  0  0  0  0  0
   -4.1358    2.2596    2.4947 O   0  0  0  0  0  0  0  0  0  0  0  0
   -4.3194    0.0086    3.3378 C   0  0  0  0  0  3  0  0  0  0  0  0
   -3.7994   -1.2742    3.3091 C   0  0  0  0  0  3  0  0  0  0  0  0
   -2.7156   -1.5484    2.4920 C   0  0  0  0  0  3  0  0  0  0  0  0
   -2.1805   -0.5325    1.7132 C   0  0  0  0  0  3  0  0  0  0  0  0
   -1.0085   -0.8582    0.8133 C   0  0  0  0  0  0  0  0  0  0  0  0
   -0.5478   -1.9942    0.8271 O   0  0  0  0  0  0  0  0  0  0  0  0
    0.3092   -1.0639   -1.8257 C   0  0  0  0  0  0  0  0  0  0  0  0
   -0.7337   -1.9304   -2.1275 C   0  0  0  0  0  0  0  0  0  0  0  0
   -0.5530   -2.8121   -3.1732 C   0  0  0  0  0  0  0  0  0  0  0  0
    0.6267   -2.8315   -3.9167 C   0  0  0  0  0  0  0  0  0  0  0  0
    1.6555   -1.9559   -3.6374 C   0  0  0  0  0  0  0  0  0  0  0  0
    1.4994   -1.0594   -2.5877 C   0  0  0  0  0  0  0  0  0  0  0  0
    2.6815    1.4399    2.3831 H   0  0  0  0  0  0  0  0  0  0  0  0
    1.1320    2.0290    2.9999 H   0  0  0  0  0  0  0  0  0  0  0  0
    1.2037    0.5369    2.0555 H   0  0  0  0  0  0  0  0  0  0  0  0
    0.3384    2.4527    0.6604 H   0  0  0  0  0  0  0  0  0  0  0  0
    1.8398    3.3404    1.0055 H   0  0  0  0  0  0  0  0  0  0  0  0
    3.8097    2.9457   -0.1379 H   0  0  0  0  0  0  0  0  0  0  0  0
    5.0712    1.9174   -1.9568 H   0  0  0  0  0  0  0  0  0  0  0  0
    4.1200    0.0030   -3.2169 H   0  0  0  0  0  0  0  0  0  0  0  0
   -4.8976    2.3989    3.0716 H   0  0  0  0  0  0  0  0  0  0  0  0
   -5.1656    0.2588    3.9602 H   0  0  0  0  0  0  0  0  0  0  0  0
   -4.2387   -2.0494    3.9184 H   0  0  0  0  0  0  0  0  0  0  0  0
   -2.2676   -2.5270    2.4290 H   0  0  0  0  0  0  0  0  0  0  0  0
   -1.6525   -1.9198   -1.5624 H   0  0  0  0  0  0  0  0  0  0  0  0
   -1.3452   -3.5024   -3.4249 H   0  0  0  0  0  0  0  0  0  0  0  0
    0.7281   -3.5395   -4.7264 H   0  0  0  0  0  0  0  0  0  0  0  0
    2.5632   -1.9606   -4.2226 H   0  0  0  0  0  0  0  0  0  0  0  0
  1  2  1  0  0  0  0
  1 27  1  0  0  0  0
  1 28  1  0  0  0  0
  1 29  1  0  0  0  0
  2  3  1  0  0  0  0
  2 30  1  0  0  0  0
  2 31  1  0  0  0  0
  3  4  2  0  0  0  0
  3  8  1  0  0  0  0
  4  5  1  0  0  0  0
  4 32  1  0  0  0  0
  5  6  2  0  0  0  0
  5 33  1  0  0  0  0
  6  7  1  0  0  0  0
  6 34  1  0  0  0  0
  7  8  2  0  0  0  0
  7 26  1  0  0  0  0
  8  9  1  0  0  0  0
  9 10  1  0  0  0  0
  9 21  1  0  0  0  0
 10 11  1  0  0  0  0
 10 19  1  0  0  0  0
 11 12  1  0  0  0  0
 12 13  1  0  0  0  0
 12 18  1  0  0  0  0
 13 14  1  0  0  0  0
 13 15  1  0  0  0  0
 14 35  1  0  0  0  0
 15 16  1  0  0  0  0
 15 36  1  0  0  0  0
 16 17  1  0  0  0  0
 16 37  1  0  0  0  0
 17 18  1  0  0  0  0
 17 38  1  0  0  0  0
 18 19  1  0  0  0  0
 19 20  2  0  0  0  0
 21 22  2  0  0  0  0
 21 26  1  0  0  0  0
 22 23  1  0  0  0  0
 22 39  1  0  0  0  0
 23 24  2  0  0  0  0
 23 40  1  0  0  0  0
 24 25  1  0  0  0  0
 24 41  1  0  0  0  0
 25 26  2  0  0  0  0
 25 42  1  0  0  0  0
M  END
> <total energy / Eh>
    -71.829855255437

> <gradient norm / Eh/a0>
      0.000467338226

$$$$
