L100
  xtb     03142303423D
xtb: 6.4.1 (afa7bdf)
 59 63  0     0  0            999 V2000
    2.5861   -5.2799   -1.9607 C   0  0  0  0  0  0  0  0  0  0  0  0
    2.7321   -3.8851   -1.3462 C   0  0  0  0  0  0  0  0  0  0  0  0
    3.5832   -3.0331   -2.3001 C   0  0  0  0  0  0  0  0  0  0  0  0
    3.4517   -4.0330    0.0025 C   0  0  0  0  0  0  0  0  0  0  0  0
    1.3910   -3.1978   -1.1275 C   0  0  0  0  0  0  0  0  0  0  0  0
    0.1675   -3.7965   -1.4501 C   0  0  0  0  0  0  0  0  0  0  0  0
   -1.0418   -3.1513   -1.2656 C   0  0  0  0  0  0  0  0  0  0  0  0
   -1.0579   -1.8685   -0.7424 C   0  0  0  0  0  0  0  0  0  0  0  0
   -2.0713   -0.8974   -0.4588 C   0  0  0  0  0  0  0  0  0  0  0  0
   -3.4500   -0.8842   -0.6164 C   0  0  0  0  0  0  0  0  0  0  0  0
   -4.1482    0.2556   -0.2840 C   0  0  0  0  0  0  0  0  0  0  0  0
   -3.5088    1.4060    0.1990 C   0  0  0  0  0  0  0  0  0  0  0  0
   -4.3512    2.6246    0.5456 C   0  0  0  0  0  0  0  0  0  0  0  0
   -3.5106    3.7941    1.0646 C   0  0  0  0  0  0  0  0  0  0  0  0
   -5.3555    2.2391    1.6411 C   0  0  0  0  0  0  0  0  0  0  0  0
   -5.1030    3.0938   -0.7084 C   0  0  0  0  0  0  0  0  0  0  0  0
   -2.1312    1.4049    0.3467 C   0  0  0  0  0  0  0  0  0  0  0  0
   -1.4169    0.2529    0.0453 C   0  0  0  0  0  0  0  0  0  0  0  0
   -0.0582    0.0011    0.1005 N   0  0  0  0  0  0  0  0  0  0  0  0
    1.0114    0.7956    0.4345 N   0  0  0  0  0  0  0  0  0  0  0  0
    2.8830    0.3135   -0.0096 Cu  0  0  0  0  0  2  0  0  0  0  0  0
    3.4061    1.9591    0.9500 N   0  0  0  0  0  0  0  0  0  0  0  0
    4.5550    2.6003    1.1423 C   0  0  0  0  0  3  0  0  0  0  0  0
    5.6283    2.0475    0.5522 O   0  0  0  0  0  0  0  0  0  0  0  0
    4.5934    3.7645    1.9123 C   0  0  0  0  0  3  0  0  0  0  0  0
    3.5036    4.2489    2.4827 N   0  0  0  0  0  2  0  0  0  0  0  0
    2.3704    3.5967    2.3041 C   0  0  0  0  0  3  0  0  0  0  0  0
    2.2895    2.4430    1.5237 C   0  0  0  0  0  3  0  0  0  0  0  0
    0.9661    1.7365    1.3770 C   0  0  0  0  0  0  0  0  0  0  0  0
    0.0321    2.0907    2.0930 O   0  0  0  0  0  0  0  0  0  0  0  0
    0.1705   -1.2592   -0.3942 C   0  0  0  0  0  0  0  0  0  0  0  0
    1.3712   -1.9224   -0.5838 C   0  0  0  0  0  0  0  0  0  0  0  0
    3.5717   -5.7194   -2.1009 H   0  0  0  0  0  0  0  0  0  0  0  0
    2.0996   -5.2301   -2.9318 H   0  0  0  0  0  0  0  0  0  0  0  0
    2.0161   -5.9367   -1.3083 H   0  0  0  0  0  0  0  0  0  0  0  0
    4.5299   -3.5301   -2.5014 H   0  0  0  0  0  0  0  0  0  0  0  0
    3.7986   -2.0525   -1.8802 H   0  0  0  0  0  0  0  0  0  0  0  0
    3.0599   -2.8923   -3.2435 H   0  0  0  0  0  0  0  0  0  0  0  0
    4.3934   -4.5609   -0.1324 H   0  0  0  0  0  0  0  0  0  0  0  0
    2.8346   -4.6006    0.6958 H   0  0  0  0  0  0  0  0  0  0  0  0
    3.6676   -3.0663    0.4510 H   0  0  0  0  0  0  0  0  0  0  0  0
    0.1519   -4.7918   -1.8605 H   0  0  0  0  0  0  0  0  0  0  0  0
   -1.9646   -3.6434   -1.5337 H   0  0  0  0  0  0  0  0  0  0  0  0
   -3.9631   -1.7552   -0.9969 H   0  0  0  0  0  0  0  0  0  0  0  0
   -5.2205    0.2546   -0.4083 H   0  0  0  0  0  0  0  0  0  0  0  0
   -4.1656    4.6214    1.3321 H   0  0  0  0  0  0  0  0  0  0  0  0
   -2.9469    3.5077    1.9486 H   0  0  0  0  0  0  0  0  0  0  0  0
   -2.8182    4.1456    0.3029 H   0  0  0  0  0  0  0  0  0  0  0  0
   -5.9627    3.1002    1.9133 H   0  0  0  0  0  0  0  0  0  0  0  0
   -4.8254    1.8952    2.5264 H   0  0  0  0  0  0  0  0  0  0  0  0
   -6.0197    1.4451    1.3110 H   0  0  0  0  0  0  0  0  0  0  0  0
   -4.3971    3.3358   -1.5005 H   0  0  0  0  0  0  0  0  0  0  0  0
   -5.6880    3.9835   -0.4834 H   0  0  0  0  0  0  0  0  0  0  0  0
   -5.7787    2.3271   -1.0775 H   0  0  0  0  0  0  0  0  0  0  0  0
   -1.6100    2.2647    0.7232 H   0  0  0  0  0  0  0  0  0  0  0  0
    6.4261    2.5620    0.7308 H   0  0  0  0  0  0  0  0  0  0  0  0
    5.5126    4.3127    2.0714 H   0  0  0  0  0  0  0  0  0  0  0  0
    1.4848    3.9865    2.7825 H   0  0  0  0  0  0  0  0  0  0  0  0
    2.3260   -1.4224   -0.2990 H   0  0  0  0  0  0  0  0  0  0  0  0
  2  1  1  0  0  0  0
  1 33  1  0  0  0  0
  1 34  1  0  0  0  0
  1 35  1  0  0  0  0
  2  3  1  0  0  0  0
  2  4  1  0  0  0  0
  2  5  1  0  0  0  0
  3 36  1  0  0  0  0
  3 37  1  0  0  0  0
  3 38  1  0  0  0  0
  4 39  1  0  0  0  0
  4 40  1  0  0  0  0
  4 41  1  0  0  0  0
  5  6  2  0  0  0  0
  5 32  1  0  0  0  0
  6  7  1  0  0  0  0
  6 42  1  0  0  0  0
  7  8  2  0  0  0  0
  7 43  1  0  0  0  0
  8  9  1  0  0  0  0
  8 31  1  0  0  0  0
  9 10  2  0  0  0  0
  9 18  1  0  0  0  0
 10 11  1  0  0  0  0
 10 44  1  0  0  0  0
 11 12  2  0  0  0  0
 11 45  1  0  0  0  0
 12 13  1  0  0  0  0
 12 17  1  0  0  0  0
 13 14  1  0  0  0  0
 13 15  1  0  0  0  0
 13 16  1  0  0  0  0
 14 46  1  0  0  0  0
 14 47  1  0  0  0  0
 14 48  1  0  0  0  0
 15 49  1  0  0  0  0
 15 50  1  0  0  0  0
 15 51  1  0  0  0  0
 16 52  1  0  0  0  0
 16 53  1  0  0  0  0
 16 54  1  0  0  0  0
 17 18  2  0  0  0  0
 17 55  1  0  0  0  0
 18 19  1  0  0  0  0
 19 20  1  0  0  0  0
 19 31  1  0  0  0  0
 20 21  1  0  0  0  0
 20 29  1  0  0  0  0
 21 22  1  0  0  0  0
 22 23  1  0  0  0  0
 22 28  1  0  0  0  0
 23 24  1  0  0  0  0
 23 25  1  0  0  0  0
 24 56  1  0  0  0  0
 25 26  1  0  0  0  0
 25 57  1  0  0  0  0
 26 27  1  0  0  0  0
 27 28  1  0  0  0  0
 27 58  1  0  0  0  0
 28 29  1  0  0  0  0
 29 30  2  0  0  0  0
 31 32  2  0  0  0  0
 32 59  1  0  0  0  0
M  END
> <total energy / Eh>
    -91.092144252907

> <gradient norm / Eh/a0>
      0.000529784360

$$$$
