L63
  xtb     12202207443D
xtb: 6.4.1 (afa7bdf)
 44 48  0     0  0            999 V2000
    5.9841   -1.9448    0.4551 C   0  0  0  0  0  0  0  0  0  0  0  0
    4.8315   -2.7192    0.2471 O   0  0  0  0  0  0  0  0  0  0  0  0
    3.6235   -2.0756    0.1850 C   0  0  0  0  0  0  0  0  0  0  0  0
    2.5162   -2.9124   -0.0290 C   0  0  0  0  0  0  0  0  0  0  0  0
    1.2348   -2.4213   -0.1220 C   0  0  0  0  0  0  0  0  0  0  0  0
    1.0454   -1.0501    0.0186 C   0  0  0  0  0  0  0  0  0  0  0  0
    2.1583   -0.1965    0.2159 C   0  0  0  0  0  0  0  0  0  0  0  0
    3.4496   -0.7092    0.3057 C   0  0  0  0  0  0  0  0  0  0  0  0
    1.6588    1.1454    0.2500 C   0  0  0  0  0  0  0  0  0  0  0  0
    2.2371    2.3951    0.3937 C   0  0  0  0  0  0  0  0  0  0  0  0
    1.4320    3.5289    0.3428 C   0  0  0  0  0  0  0  0  0  0  0  0
    2.0862    4.7225    0.5024 O   0  0  0  0  0  0  0  0  0  0  0  0
    1.3391    5.9110    0.4803 C   0  0  0  0  0  0  0  0  0  0  0  0
    0.0524    3.4154    0.1347 C   0  0  0  0  0  0  0  0  0  0  0  0
   -0.5348    2.1712    0.0010 C   0  0  0  0  0  0  0  0  0  0  0  0
    0.2571    1.0377    0.0649 C   0  0  0  0  0  0  0  0  0  0  0  0
   -0.0976   -0.2807   -0.0474 N   0  0  0  0  0  0  0  0  0  0  0  0
   -1.4133   -0.6067   -0.2951 N   0  0  0  0  0  0  0  0  0  0  0  0
   -2.7831    0.6621   -0.8280 Cu  0  0  0  0  0  2  0  0  0  0  0  0
   -4.0977   -0.8067   -0.7445 N   0  0  0  0  0  0  0  0  0  0  0  0
   -5.3868   -0.9313   -1.0472 C   0  0  0  0  0  3  0  0  0  0  0  0
   -6.0045    0.1220   -1.5941 O   0  0  0  0  0  0  0  0  0  0  0  0
   -6.0976   -2.1065   -0.8121 C   0  0  0  0  0  3  0  0  0  0  0  0
   -5.4268   -3.1690   -0.2370 C   0  0  0  0  0  3  0  0  0  0  0  0
   -4.0838   -3.0358    0.0803 C   0  0  0  0  0  3  0  0  0  0  0  0
   -3.4345   -1.8420   -0.1901 C   0  0  0  0  0  3  0  0  0  0  0  0
   -1.9759   -1.7153    0.1898 C   0  0  0  0  0  0  0  0  0  0  0  0
   -1.4646   -2.6068    0.8614 O   0  0  0  0  0  0  0  0  0  0  0  0
    5.9421   -1.4058    1.4077 H   0  0  0  0  0  0  0  0  0  0  0  0
    6.8145   -2.6492    0.4777 H   0  0  0  0  0  0  0  0  0  0  0  0
    6.1408   -1.2283   -0.3589 H   0  0  0  0  0  0  0  0  0  0  0  0
    2.7036   -3.9702   -0.1239 H   0  0  0  0  0  0  0  0  0  0  0  0
    0.4032   -3.0884   -0.2694 H   0  0  0  0  0  0  0  0  0  0  0  0
    4.2747   -0.0328    0.4597 H   0  0  0  0  0  0  0  0  0  0  0  0
    3.2977    2.5160    0.5428 H   0  0  0  0  0  0  0  0  0  0  0  0
    0.5911    5.9345    1.2804 H   0  0  0  0  0  0  0  0  0  0  0  0
    0.8434    6.0612   -0.4852 H   0  0  0  0  0  0  0  0  0  0  0  0
    2.0581    6.7132    0.6404 H   0  0  0  0  0  0  0  0  0  0  0  0
   -0.5685    4.2953    0.0819 H   0  0  0  0  0  0  0  0  0  0  0  0
   -1.6310    2.0910   -0.1595 H   0  0  0  0  0  0  0  0  0  0  0  0
   -5.3733    0.8544   -1.6973 H   0  0  0  0  0  0  0  0  0  0  0  0
   -7.1396   -2.1509   -1.0793 H   0  0  0  0  0  0  0  0  0  0  0  0
   -5.9478   -4.0928   -0.0375 H   0  0  0  0  0  0  0  0  0  0  0  0
   -3.5142   -3.8286    0.5378 H   0  0  0  0  0  0  0  0  0  0  0  0
  1  2  1  0  0  0  0
  1 29  1  0  0  0  0
  1 30  1  0  0  0  0
  1 31  1  0  0  0  0
  2  3  1  0  0  0  0
  3  4  2  0  0  0  0
  3  8  1  0  0  0  0
  4  5  1  0  0  0  0
  4 32  1  0  0  0  0
  5  6  2  0  0  0  0
  5 33  1  0  0  0  0
  6  7  1  0  0  0  0
  6 17  1  0  0  0  0
  7  8  2  0  0  0  0
  7  9  1  0  0  0  0
  8 34  1  0  0  0  0
  9 10  2  0  0  0  0
  9 16  1  0  0  0  0
 10 11  1  0  0  0  0
 10 35  1  0  0  0  0
 11 12  1  0  0  0  0
 11 14  2  0  0  0  0
 12 13  1  0  0  0  0
 13 36  1  0  0  0  0
 13 37  1  0  0  0  0
 13 38  1  0  0  0  0
 14 15  1  0  0  0  0
 14 39  1  0  0  0  0
 15 16  2  0  0  0  0
 15 40  1  0  0  0  0
 16 17  1  0  0  0  0
 17 18  1  0  0  0  0
 18 19  1  0  0  0  0
 18 27  1  0  0  0  0
 19 20  1  0  0  0  0
 20 21  1  0  0  0  0
 20 26  1  0  0  0  0
 21 22  1  0  0  0  0
 21 23  1  0  0  0  0
 22 41  1  0  0  0  0
 23 24  1  0  0  0  0
 23 42  1  0  0  0  0
 24 25  1  0  0  0  0
 24 43  1  0  0  0  0
 25 26  1  0  0  0  0
 25 44  1  0  0  0  0
 26 27  1  0  0  0  0
 27 28  2  0  0  0  0
M  END
> <total energy / Eh>
    -79.963073677548

> <gradient norm / Eh/a0>
      0.000367327956

$$$$
