L70
  xtb     12232207053D
xtb: 6.4.1 (afa7bdf)
 42 47  0     0  0            999 V2000
    0.7960   -2.0560   -1.1595 O   0  0  0  0  0  0  0  0  0  0  0  0
    0.0884   -1.8318   -0.1847 C   0  0  0  0  0  0  0  0  0  0  0  0
   -0.7354   -2.9630    0.3921 C   0  0  0  0  0  3  0  0  0  0  0  0
   -0.5562   -4.2374   -0.1261 C   0  0  0  0  0  3  0  0  0  0  0  0
   -1.2950   -5.2878    0.3927 C   0  0  0  0  0  3  0  0  0  0  0  0
   -2.2025   -5.0423    1.4086 C   0  0  0  0  0  3  0  0  0  0  0  0
   -2.3377   -3.7353    1.8707 C   0  0  0  0  0  3  0  0  0  0  0  0
   -3.1958   -3.3770    2.8423 O   0  0  0  0  0  0  0  0  0  0  0  0
   -1.6181   -2.7353    1.3761 N   0  0  0  0  0  0  0  0  0  0  0  0
   -1.5840   -0.8147    1.6525 Cu  0  0  0  0  0  2  0  0  0  0  0  0
   -0.0407   -0.6759    0.4829 N   0  0  0  0  0  0  0  0  0  0  0  0
    0.7733    0.3642    0.0718 N   0  0  0  0  0  0  0  0  0  0  0  0
    2.1327    0.2374   -0.0901 C   0  0  0  0  0  0  0  0  0  0  0  0
    2.9781   -0.8050    0.2703 C   0  0  0  0  0  0  0  0  0  0  0  0
    4.3241   -0.6563    0.0116 C   0  0  0  0  0  0  0  0  0  0  0  0
    4.8313    0.5021   -0.5799 C   0  0  0  0  0  0  0  0  0  0  0  0
    4.0020    1.5505   -0.9141 C   0  0  0  0  0  0  0  0  0  0  0  0
    2.6394    1.4253   -0.6636 C   0  0  0  0  0  0  0  0  0  0  0  0
    1.5184    2.2916   -0.8417 C   0  0  0  0  0  0  0  0  0  0  0  0
    1.4190    3.5799   -1.3822 C   0  0  0  0  0  0  0  0  0  0  0  0
    0.1987    4.1855   -1.4311 C   0  0  0  0  0  0  0  0  0  0  0  0
   -0.9573    3.5564   -0.9079 C   0  0  0  0  0  0  0  0  0  0  0  0
   -2.1954    4.2260   -0.9258 C   0  0  0  0  0  0  0  0  0  0  0  0
   -3.3201    3.6705   -0.3794 C   0  0  0  0  0  0  0  0  0  0  0  0
   -3.2450    2.4127    0.2283 C   0  0  0  0  0  0  0  0  0  0  0  0
   -2.0572    1.7322    0.2448 C   0  0  0  0  0  0  0  0  0  0  0  0
   -0.8843    2.2517   -0.3306 C   0  0  0  0  0  0  0  0  0  0  0  0
    0.3816    1.6100   -0.3574 C   0  0  0  0  0  0  0  0  0  0  0  0
    0.1600   -4.3673   -0.9213 H   0  0  0  0  0  0  0  0  0  0  0  0
   -1.1679   -6.2900    0.0122 H   0  0  0  0  0  0  0  0  0  0  0  0
   -2.7958   -5.8363    1.8372 H   0  0  0  0  0  0  0  0  0  0  0  0
   -3.6892   -4.1394    3.1706 H   0  0  0  0  0  0  0  0  0  0  0  0
    2.5973   -1.7008    0.7354 H   0  0  0  0  0  0  0  0  0  0  0  0
    5.0044   -1.4533    0.2745 H   0  0  0  0  0  0  0  0  0  0  0  0
    5.8926    0.5750   -0.7684 H   0  0  0  0  0  0  0  0  0  0  0  0
    4.3970    2.4533   -1.3561 H   0  0  0  0  0  0  0  0  0  0  0  0
    2.3041    4.0705   -1.7583 H   0  0  0  0  0  0  0  0  0  0  0  0
    0.0916    5.1731   -1.8554 H   0  0  0  0  0  0  0  0  0  0  0  0
   -2.2393    5.2063   -1.3790 H   0  0  0  0  0  0  0  0  0  0  0  0
   -4.2619    4.1983   -0.4022 H   0  0  0  0  0  0  0  0  0  0  0  0
   -4.1248    1.9825    0.6836 H   0  0  0  0  0  0  0  0  0  0  0  0
   -2.0262    0.7503    0.7566 H   0  0  0  0  0  0  0  0  0  0  0  0
  1  2  2  0  0  0  0
  2  3  1  0  0  0  0
  2 11  1  0  0  0  0
  3  4  1  0  0  0  0
  3  9  1  0  0  0  0
  4  5  1  0  0  0  0
  4 29  1  0  0  0  0
  5  6  1  0  0  0  0
  5 30  1  0  0  0  0
  6  7  1  0  0  0  0
  6 31  1  0  0  0  0
  7  8  1  0  0  0  0
  7  9  1  0  0  0  0
  8 32  1  0  0  0  0
  9 10  1  0  0  0  0
 10 11  1  0  0  0  0
 11 12  1  0  0  0  0
 12 13  1  0  0  0  0
 12 28  1  0  0  0  0
 13 14  2  0  0  0  0
 13 18  1  0  0  0  0
 14 15  1  0  0  0  0
 14 33  1  0  0  0  0
 15 16  2  0  0  0  0
 15 34  1  0  0  0  0
 16 17  1  0  0  0  0
 16 35  1  0  0  0  0
 17 18  2  0  0  0  0
 17 36  1  0  0  0  0
 18 19  1  0  0  0  0
 19 20  2  0  0  0  0
 19 28  1  0  0  0  0
 20 21  1  0  0  0  0
 20 37  1  0  0  0  0
 21 22  2  0  0  0  0
 21 38  1  0  0  0  0
 22 23  1  0  0  0  0
 22 27  1  0  0  0  0
 23 24  2  0  0  0  0
 23 39  1  0  0  0  0
 24 25  1  0  0  0  0
 24 40  1  0  0  0  0
 25 26  2  0  0  0  0
 25 41  1  0  0  0  0
 26 27  1  0  0  0  0
 26 42  1  0  0  0  0
 27 28  2  0  0  0  0
M  END
> <total energy / Eh>
    -75.092070495029

> <gradient norm / Eh/a0>
      0.000264905338

$$$$
