L62
  xtb     12202207443D
xtb: 6.4.1 (afa7bdf)
 40 44  0     0  0            999 V2000
    6.1024   -0.1888    1.0607 C   0  0  0  0  0  0  0  0  0  0  0  0
    5.1380   -1.1012    0.6012 O   0  0  0  0  0  0  0  0  0  0  0  0
    3.8427   -0.6706    0.4890 C   0  0  0  0  0  0  0  0  0  0  0  0
    2.9436   -1.6442    0.0208 C   0  0  0  0  0  0  0  0  0  0  0  0
    1.6100   -1.3534   -0.1506 C   0  0  0  0  0  0  0  0  0  0  0  0
    1.1587   -0.0774    0.1586 C   0  0  0  0  0  0  0  0  0  0  0  0
    2.0532    0.9026    0.6453 C   0  0  0  0  0  0  0  0  0  0  0  0
    3.4022    0.6046    0.8052 C   0  0  0  0  0  0  0  0  0  0  0  0
    1.2566    2.0632    0.9059 C   0  0  0  0  0  0  0  0  0  0  0  0
    1.5590    3.3176    1.4220 C   0  0  0  0  0  0  0  0  0  0  0  0
    0.5358    4.2222    1.6093 C   0  0  0  0  0  0  0  0  0  0  0  0
   -0.7794    3.8836    1.2927 C   0  0  0  0  0  0  0  0  0  0  0  0
   -1.1095    2.6456    0.7806 C   0  0  0  0  0  0  0  0  0  0  0  0
   -0.0831    1.7325    0.5665 C   0  0  0  0  0  0  0  0  0  0  0  0
   -0.1102    0.4398    0.0935 N   0  0  0  0  0  0  0  0  0  0  0  0
   -1.1548   -0.3830   -0.2719 N   0  0  0  0  0  0  0  0  0  0  0  0
   -1.0149   -2.3164   -0.4516 Cu  0  0  0  0  0  2  0  0  0  0  0  0
   -2.8995   -2.3258   -1.0583 N   0  0  0  0  0  0  0  0  0  0  0  0
   -3.7938   -3.2736   -1.3240 C   0  0  0  0  0  3  0  0  0  0  0  0
   -3.4229   -4.5478   -1.1581 O   0  0  0  0  0  0  0  0  0  0  0  0
   -5.0834   -2.9790   -1.7633 C   0  0  0  0  0  3  0  0  0  0  0  0
   -5.4259   -1.6514   -1.9334 C   0  0  0  0  0  3  0  0  0  0  0  0
   -4.4888   -0.6655   -1.6630 C   0  0  0  0  0  3  0  0  0  0  0  0
   -3.2288   -1.0281   -1.2163 C   0  0  0  0  0  3  0  0  0  0  0  0
   -2.2198    0.0654   -0.9378 C   0  0  0  0  0  0  0  0  0  0  0  0
   -2.4741    1.2070   -1.3101 O   0  0  0  0  0  0  0  0  0  0  0  0
    6.1867    0.6774    0.3961 H   0  0  0  0  0  0  0  0  0  0  0  0
    5.8809    0.1541    2.0770 H   0  0  0  0  0  0  0  0  0  0  0  0
    7.0460   -0.7326    1.0632 H   0  0  0  0  0  0  0  0  0  0  0  0
    3.3374   -2.6225   -0.2031 H   0  0  0  0  0  0  0  0  0  0  0  0
    0.9130   -2.1326   -0.5269 H   0  0  0  0  0  0  0  0  0  0  0  0
    4.0722    1.3634    1.1753 H   0  0  0  0  0  0  0  0  0  0  0  0
    2.5783    3.5702    1.6751 H   0  0  0  0  0  0  0  0  0  0  0  0
    0.7494    5.2021    2.0106 H   0  0  0  0  0  0  0  0  0  0  0  0
   -1.5629    4.6087    1.4575 H   0  0  0  0  0  0  0  0  0  0  0  0
   -2.1284    2.4080    0.5279 H   0  0  0  0  0  0  0  0  0  0  0  0
   -2.5026   -4.5839   -0.8464 H   0  0  0  0  0  0  0  0  0  0  0  0
   -5.7676   -3.7870   -1.9580 H   0  0  0  0  0  0  0  0  0  0  0  0
   -6.4157   -1.3877   -2.2735 H   0  0  0  0  0  0  0  0  0  0  0  0
   -4.6999    0.3842   -1.7878 H   0  0  0  0  0  0  0  0  0  0  0  0
  1  2  1  0  0  0  0
  1 27  1  0  0  0  0
  1 28  1  0  0  0  0
  1 29  1  0  0  0  0
  2  3  1  0  0  0  0
  3  4  2  0  0  0  0
  3  8  1  0  0  0  0
  4  5  1  0  0  0  0
  4 30  1  0  0  0  0
  5  6  2  0  0  0  0
  5 31  1  0  0  0  0
  6  7  1  0  0  0  0
  6 15  1  0  0  0  0
  7  8  2  0  0  0  0
  7  9  1  0  0  0  0
  8 32  1  0  0  0  0
  9 10  2  0  0  0  0
  9 14  1  0  0  0  0
 10 11  1  0  0  0  0
 10 33  1  0  0  0  0
 11 12  2  0  0  0  0
 11 34  1  0  0  0  0
 12 13  1  0  0  0  0
 12 35  1  0  0  0  0
 13 14  2  0  0  0  0
 13 36  1  0  0  0  0
 14 15  1  0  0  0  0
 15 16  1  0  0  0  0
 16 17  1  0  0  0  0
 16 25  1  0  0  0  0
 17 18  1  0  0  0  0
 18 19  1  0  0  0  0
 18 24  1  0  0  0  0
 19 20  1  0  0  0  0
 19 21  1  0  0  0  0
 20 37  1  0  0  0  0
 21 22  1  0  0  0  0
 21 38  1  0  0  0  0
 22 23  1  0  0  0  0
 22 39  1  0  0  0  0
 23 24  1  0  0  0  0
 23 40  1  0  0  0  0
 24 25  1  0  0  0  0
 25 26  2  0  0  0  0
M  END
> <total energy / Eh>
    -72.732315532893

> <gradient norm / Eh/a0>
      0.000266821584

$$$$
