L86
  xtb     01102303193D
xtb: 6.4.1 (afa7bdf)
 36 40  0     0  0            999 V2000
    1.5053   -1.4124    0.9902 O   0  0  0  0  0  0  0  0  0  0  0  0
    1.5277   -0.5359    0.1356 C   0  0  0  0  0  0  0  0  0  0  0  0
    2.8523   -0.1409   -0.4798 C   0  0  0  0  0  3  0  0  0  0  0  0
    3.9568   -0.9361   -0.2339 C   0  0  0  0  0  3  0  0  0  0  0  0
    5.1860   -0.5769   -0.7714 C   0  0  0  0  0  3  0  0  0  0  0  0
    5.2833    0.5685   -1.5345 C   0  0  0  0  0  3  0  0  0  0  0  0
    4.1303    1.3290   -1.7342 C   0  0  0  0  0  3  0  0  0  0  0  0
    4.1925    2.4472   -2.4600 O   0  0  0  0  0  0  0  0  0  0  0  0
    2.9540    0.9807   -1.2203 N   0  0  0  0  0  0  0  0  0  0  0  0
    1.1411    1.7620   -1.2200 Cu  0  0  0  0  0  2  0  0  0  0  0  0
    0.4907    0.1415   -0.3712 N   0  0  0  0  0  0  0  0  0  0  0  0
   -0.7813   -0.0823    0.1142 N   0  0  0  0  0  0  0  0  0  0  0  0
   -1.4317   -1.2518    0.4253 C   0  0  0  0  0  0  0  0  0  0  0  0
   -1.0089   -2.5708    0.3139 C   0  0  0  0  0  0  0  0  0  0  0  0
   -1.9073   -3.5466    0.6914 C   0  0  0  0  0  0  0  0  0  0  0  0
   -1.3759   -5.3693    0.5546 Br  0  0  0  0  0  0  0  0  0  0  0  0
   -3.1932   -3.2664    1.1512 C   0  0  0  0  0  0  0  0  0  0  0  0
   -3.6193   -1.9583    1.2339 C   0  0  0  0  0  0  0  0  0  0  0  0
   -2.7479   -0.9409    0.8637 C   0  0  0  0  0  0  0  0  0  0  0  0
   -2.8864    0.4817    0.7820 C   0  0  0  0  0  0  0  0  0  0  0  0
   -3.9109    1.3842    1.0357 C   0  0  0  0  0  0  0  0  0  0  0  0
   -3.7001    2.7289    0.7977 C   0  0  0  0  0  0  0  0  0  0  0  0
   -2.4744    3.1712    0.3012 C   0  0  0  0  0  0  0  0  0  0  0  0
   -2.2303    5.0312   -0.0446 Br  0  0  0  0  0  0  0  0  0  0  0  0
   -1.4284    2.3091    0.0494 C   0  0  0  0  0  0  0  0  0  0  0  0
   -1.6417    0.9607    0.2997 C   0  0  0  0  0  0  0  0  0  0  0  0
    3.8277   -1.8150    0.3768 H   0  0  0  0  0  0  0  0  0  0  0  0
    6.0587   -1.1863   -0.5945 H   0  0  0  0  0  0  0  0  0  0  0  0
    6.2083    0.8985   -1.9757 H   0  0  0  0  0  0  0  0  0  0  0  0
    3.3158    2.8649   -2.5102 H   0  0  0  0  0  0  0  0  0  0  0  0
   -0.0197   -2.8250   -0.0261 H   0  0  0  0  0  0  0  0  0  0  0  0
   -3.8477   -4.0771    1.4306 H   0  0  0  0  0  0  0  0  0  0  0  0
   -4.6166   -1.7274    1.5749 H   0  0  0  0  0  0  0  0  0  0  0  0
   -4.8636    1.0441    1.4104 H   0  0  0  0  0  0  0  0  0  0  0  0
   -4.4822    3.4468    0.9878 H   0  0  0  0  0  0  0  0  0  0  0  0
   -0.4632    2.6689   -0.3436 H   0  0  0  0  0  0  0  0  0  0  0  0
  1  2  2  0  0  0  0
  2  3  1  0  0  0  0
  2 11  1  0  0  0  0
  3  4  1  0  0  0  0
  3  9  1  0  0  0  0
  4  5  1  0  0  0  0
  4 27  1  0  0  0  0
  5  6  1  0  0  0  0
  5 28  1  0  0  0  0
  6  7  1  0  0  0  0
  6 29  1  0  0  0  0
  7  8  1  0  0  0  0
  7  9  1  0  0  0  0
  8 30  1  0  0  0  0
  9 10  1  0  0  0  0
 10 11  1  0  0  0  0
 11 12  1  0  0  0  0
 12 13  1  0  0  0  0
 12 26  1  0  0  0  0
 13 14  2  0  0  0  0
 13 19  1  0  0  0  0
 14 15  1  0  0  0  0
 14 31  1  0  0  0  0
 15 16  1  0  0  0  0
 15 17  2  0  0  0  0
 17 18  1  0  0  0  0
 17 32  1  0  0  0  0
 18 19  2  0  0  0  0
 18 33  1  0  0  0  0
 19 20  1  0  0  0  0
 20 21  2  0  0  0  0
 20 26  1  0  0  0  0
 21 22  1  0  0  0  0
 21 34  1  0  0  0  0
 22 23  2  0  0  0  0
 22 35  1  0  0  0  0
 23 24  1  0  0  0  0
 23 25  1  0  0  0  0
 25 26  2  0  0  0  0
 25 36  1  0  0  0  0
M  END
> <total energy / Eh>
    -72.666458053953

> <gradient norm / Eh/a0>
      0.000234403069

$$$$
