L59
  xtb     12202207443D
xtb: 6.4.1 (afa7bdf)
 37 41  0     0  0            999 V2000
    0.5875   -0.7210   -1.8192 O   0  0  0  0  0  0  0  0  0  0  0  0
    1.2230   -0.3840   -0.8341 C   0  0  0  0  0  0  0  0  0  0  0  0
    2.7402   -0.4268   -0.8855 C   0  0  0  0  0  3  0  0  0  0  0  0
    3.3481   -0.8699   -2.0459 C   0  0  0  0  0  3  0  0  0  0  0  0
    4.7349   -0.9007   -2.1194 C   0  0  0  0  0  3  0  0  0  0  0  0
    5.4817   -0.4933   -1.0326 C   0  0  0  0  0  3  0  0  0  0  0  0
    4.8043   -0.0634    0.1083 C   0  0  0  0  0  3  0  0  0  0  0  0
    5.4867    0.3365    1.1823 O   0  0  0  0  0  0  0  0  0  0  0  0
    3.4757   -0.0319    0.1714 N   0  0  0  0  0  0  0  0  0  0  0  0
    2.1827    0.4665    1.4946 Cu  0  0  0  0  0  2  0  0  0  0  0  0
    0.7238    0.0425    0.3411 N   0  0  0  0  0  0  0  0  0  0  0  0
   -0.6601    0.1636    0.3957 N   0  0  0  0  0  0  0  0  0  0  0  0
   -1.3899    1.2028   -0.1252 C   0  0  0  0  0  0  0  0  0  0  0  0
   -0.9570    2.3438   -0.7845 C   0  0  0  0  0  0  0  0  0  0  0  0
   -1.9121    3.2527   -1.1869 C   0  0  0  0  0  0  0  0  0  0  0  0
   -3.2701    3.0358   -0.9369 C   0  0  0  0  0  0  0  0  0  0  0  0
   -3.7097    1.9081   -0.2811 C   0  0  0  0  0  0  0  0  0  0  0  0
   -2.7710    0.9659    0.1392 C   0  0  0  0  0  0  0  0  0  0  0  0
   -2.8175   -0.2759    0.8204 C   0  0  0  0  0  0  0  0  0  0  0  0
   -1.5343   -0.7235    0.9448 C   0  0  0  0  0  0  0  0  0  0  0  0
   -1.4129   -2.0154    1.6677 C   0  0  0  0  0  0  0  0  0  0  0  0
   -2.8942   -2.4640    1.7348 C   0  0  0  0  0  0  0  0  0  0  0  0
   -3.7802   -1.2215    1.4606 C   0  0  0  0  0  0  0  0  0  0  0  0
    2.7167   -1.1745   -2.8651 H   0  0  0  0  0  0  0  0  0  0  0  0
    5.2274   -1.2376   -3.0184 H   0  0  0  0  0  0  0  0  0  0  0  0
    6.5585   -0.4927   -1.0330 H   0  0  0  0  0  0  0  0  0  0  0  0
    4.8662    0.6089    1.8840 H   0  0  0  0  0  0  0  0  0  0  0  0
    0.0941    2.5046   -0.9803 H   0  0  0  0  0  0  0  0  0  0  0  0
   -1.6087    4.1499   -1.7070 H   0  0  0  0  0  0  0  0  0  0  0  0
   -3.9858    3.7740   -1.2703 H   0  0  0  0  0  0  0  0  0  0  0  0
   -4.7615    1.7493   -0.0920 H   0  0  0  0  0  0  0  0  0  0  0  0
   -0.9902   -1.8677    2.6673 H   0  0  0  0  0  0  0  0  0  0  0  0
   -0.7886   -2.7414    1.1438 H   0  0  0  0  0  0  0  0  0  0  0  0
   -3.1306   -2.9224    2.6944 H   0  0  0  0  0  0  0  0  0  0  0  0
   -3.0733   -3.2058    0.9564 H   0  0  0  0  0  0  0  0  0  0  0  0
   -4.6275   -1.4676    0.8193 H   0  0  0  0  0  0  0  0  0  0  0  0
   -4.1762   -0.8036    2.3914 H   0  0  0  0  0  0  0  0  0  0  0  0
  1  2  2  0  0  0  0
  2  3  1  0  0  0  0
  2 11  1  0  0  0  0
  3  4  1  0  0  0  0
  3  9  1  0  0  0  0
  4  5  1  0  0  0  0
  4 24  1  0  0  0  0
  5  6  1  0  0  0  0
  5 25  1  0  0  0  0
  6  7  1  0  0  0  0
  6 26  1  0  0  0  0
  7  8  1  0  0  0  0
  7  9  1  0  0  0  0
  8 27  1  0  0  0  0
  9 10  1  0  0  0  0
 10 11  1  0  0  0  0
 11 12  1  0  0  0  0
 12 13  1  0  0  0  0
 12 20  1  0  0  0  0
 13 14  2  0  0  0  0
 13 18  1  0  0  0  0
 14 15  1  0  0  0  0
 14 28  1  0  0  0  0
 15 16  2  0  0  0  0
 15 29  1  0  0  0  0
 16 17  1  0  0  0  0
 16 30  1  0  0  0  0
 17 18  2  0  0  0  0
 17 31  1  0  0  0  0
 18 19  1  0  0  0  0
 19 20  2  0  0  0  0
 19 23  1  0  0  0  0
 20 21  1  0  0  0  0
 21 22  1  0  0  0  0
 21 32  1  0  0  0  0
 21 33  1  0  0  0  0
 22 23  1  0  0  0  0
 22 34  1  0  0  0  0
 22 35  1  0  0  0  0
 23 36  1  0  0  0  0
 23 37  1  0  0  0  0
M  END
> <total energy / Eh>
    -64.368824431544

> <gradient norm / Eh/a0>
      0.000540472363

$$$$
