L85
  xtb     01102303193D
xtb: 6.4.1 (afa7bdf)
 37 41  0     0  0            999 V2000
    0.3514   -1.6996   -1.2641 O   0  0  0  0  0  0  0  0  0  0  0  0
   -0.5210   -1.1835   -0.5693 C   0  0  0  0  0  0  0  0  0  0  0  0
   -1.8296   -1.9054   -0.3794 C   0  0  0  0  0  3  0  0  0  0  0  0
   -2.0156   -3.1145   -1.0377 C   0  0  0  0  0  3  0  0  0  0  0  0
   -3.2174   -3.7847   -0.8974 C   0  0  0  0  0  3  0  0  0  0  0  0
   -4.2152   -3.2325   -0.1096 C   0  0  0  0  0  3  0  0  0  0  0  0
   -3.9629   -2.0141    0.5140 C   0  0  0  0  0  3  0  0  0  0  0  0
   -4.8599   -1.3820    1.2952 O   0  0  0  0  0  0  0  0  0  0  0  0
   -2.8037   -1.3790    0.3849 N   0  0  0  0  0  0  0  0  0  0  0  0
   -2.1407    0.3768    0.9417 Cu  0  0  0  0  0  2  0  0  0  0  0  0
   -0.4494   -0.0197    0.0882 N   0  0  0  0  0  0  0  0  0  0  0  0
    0.7171    0.7192   -0.0686 N   0  0  0  0  0  0  0  0  0  0  0  0
    0.6145    2.0999   -0.0963 C   0  0  0  0  0  0  0  0  0  0  0  0
   -0.5039    2.7658    0.4093 C   0  0  0  0  0  0  0  0  0  0  0  0
   -0.6117    4.1427    0.3747 C   0  0  0  0  0  0  0  0  0  0  0  0
    0.4163    4.9033   -0.1535 C   0  0  0  0  0  0  0  0  0  0  0  0
    1.5439    4.2690   -0.6491 C   0  0  0  0  0  0  0  0  0  0  0  0
    1.6421    2.8889   -0.6339 C   0  0  0  0  0  0  0  0  0  0  0  0
    3.0552    2.1407   -1.3890 S   0  0  0  0  0  0  0  0  0  0  0  0
    3.1186    0.6444   -0.4413 C   0  0  0  0  0  0  0  0  0  0  0  0
    4.3448    0.0294   -0.2627 C   0  0  0  0  0  0  0  0  0  0  0  0
    4.4326   -1.1502    0.4555 C   0  0  0  0  0  0  0  0  0  0  0  0
    3.2908   -1.6860    1.0248 C   0  0  0  0  0  0  0  0  0  0  0  0
    2.0695   -1.0607    0.8654 C   0  0  0  0  0  0  0  0  0  0  0  0
    1.9554    0.1018    0.1037 C   0  0  0  0  0  0  0  0  0  0  0  0
   -1.2048   -3.4923   -1.6390 H   0  0  0  0  0  0  0  0  0  0  0  0
   -3.3829   -4.7284   -1.3945 H   0  0  0  0  0  0  0  0  0  0  0  0
   -5.1659   -3.7268    0.0229 H   0  0  0  0  0  0  0  0  0  0  0  0
   -5.6779   -1.8902    1.3645 H   0  0  0  0  0  0  0  0  0  0  0  0
   -1.3266    2.1697    0.8509 H   0  0  0  0  0  0  0  0  0  0  0  0
   -1.4987    4.6186    0.7648 H   0  0  0  0  0  0  0  0  0  0  0  0
    0.3415    5.9786   -0.1876 H   0  0  0  0  0  0  0  0  0  0  0  0
    2.3530    4.8394   -1.0786 H   0  0  0  0  0  0  0  0  0  0  0  0
    5.2211    0.4743   -0.7094 H   0  0  0  0  0  0  0  0  0  0  0  0
    5.3865   -1.6408    0.5716 H   0  0  0  0  0  0  0  0  0  0  0  0
    3.3475   -2.5974    1.6009 H   0  0  0  0  0  0  0  0  0  0  0  0
    1.1865   -1.4745    1.3278 H   0  0  0  0  0  0  0  0  0  0  0  0
  1  2  2  0  0  0  0
  2  3  1  0  0  0  0
  2 11  1  0  0  0  0
  3  4  1  0  0  0  0
  3  9  1  0  0  0  0
  4  5  1  0  0  0  0
  4 26  1  0  0  0  0
  5  6  1  0  0  0  0
  5 27  1  0  0  0  0
  6  7  1  0  0  0  0
  6 28  1  0  0  0  0
  7  8  1  0  0  0  0
  7  9  1  0  0  0  0
  8 29  1  0  0  0  0
  9 10  1  0  0  0  0
 10 11  1  0  0  0  0
 11 12  1  0  0  0  0
 12 13  1  0  0  0  0
 12 25  1  0  0  0  0
 13 14  2  0  0  0  0
 13 18  1  0  0  0  0
 14 15  1  0  0  0  0
 14 30  1  0  0  0  0
 15 16  2  0  0  0  0
 15 31  1  0  0  0  0
 16 17  1  0  0  0  0
 16 32  1  0  0  0  0
 17 18  2  0  0  0  0
 17 33  1  0  0  0  0
 18 19  1  0  0  0  0
 19 20  1  0  0  0  0
 20 21  2  0  0  0  0
 20 25  1  0  0  0  0
 21 22  1  0  0  0  0
 21 34  1  0  0  0  0
 22 23  2  0  0  0  0
 22 35  1  0  0  0  0
 23 24  1  0  0  0  0
 23 36  1  0  0  0  0
 24 25  2  0  0  0  0
 24 37  1  0  0  0  0
M  END
> <total energy / Eh>
    -68.723869191473

> <gradient norm / Eh/a0>
      0.000539081673

$$$$
