L84
  xtb     01102303193D
xtb: 6.4.1 (afa7bdf)
 36 40  0     0  0            999 V2000
    0.8483    1.3277    1.0846 O   0  0  0  0  0  0  0  0  0  0  0  0
    1.2745    0.4131    0.3915 C   0  0  0  0  0  0  0  0  0  0  0  0
    2.7441    0.0894    0.3379 C   0  0  0  0  0  3  0  0  0  0  0  0
    3.6787    1.0507    0.6780 C   0  0  0  0  0  3  0  0  0  0  0  0
    5.0248    0.7227    0.6101 C   0  0  0  0  0  3  0  0  0  0  0  0
    5.3938   -0.5486    0.2110 C   0  0  0  0  0  3  0  0  0  0  0  0
    4.3912   -1.4646   -0.1057 C   0  0  0  0  0  3  0  0  0  0  0  0
    4.6336   -2.7264   -0.4934 O   0  0  0  0  0  0  0  0  0  0  0  0
    3.1050   -1.1463   -0.0339 N   0  0  0  0  0  0  0  0  0  0  0  0
    1.4941   -2.1429   -0.4913 Cu  0  0  0  0  0  2  0  0  0  0  0  0
    0.5655   -0.3912   -0.4172 N   0  0  0  0  0  0  0  0  0  0  0  0
   -0.7944   -0.1666   -0.4291 N   0  0  0  0  0  0  0  0  0  0  0  0
   -1.7491   -1.0502   -0.0004 C   0  0  0  0  0  0  0  0  0  0  0  0
   -1.7504   -2.4265    0.2276 C   0  0  0  0  0  0  0  0  0  0  0  0
   -0.2331   -3.6232   -0.1127 Br  0  0  0  0  0  0  0  0  0  0  0  0
   -2.9027   -3.0526    0.6620 C   0  0  0  0  0  0  0  0  0  0  0  0
   -4.0728   -2.3244    0.8603 C   0  0  0  0  0  0  0  0  0  0  0  0
   -5.6182   -3.2450    1.4683 Br  0  0  0  0  0  0  0  0  0  0  0  0
   -4.1370   -0.9719    0.5994 C   0  0  0  0  0  0  0  0  0  0  0  0
   -2.9818   -0.3429    0.1642 C   0  0  0  0  0  0  0  0  0  0  0  0
   -2.7262    1.0129   -0.2085 C   0  0  0  0  0  0  0  0  0  0  0  0
   -3.5375    2.1402   -0.2540 C   0  0  0  0  0  0  0  0  0  0  0  0
   -2.9698    3.3123   -0.7036 C   0  0  0  0  0  0  0  0  0  0  0  0
   -4.0243    4.8940   -0.7748 Br  0  0  0  0  0  0  0  0  0  0  0  0
   -1.6525    3.3745   -1.1562 C   0  0  0  0  0  0  0  0  0  0  0  0
   -0.8484    2.2540   -1.1222 C   0  0  0  0  0  0  0  0  0  0  0  0
    0.8655    2.3724   -1.9333 Br  0  0  0  0  0  0  0  0  0  0  0  0
   -1.3641    1.0706   -0.5944 C   0  0  0  0  0  0  0  0  0  0  0  0
    3.3365    2.0255    0.9838 H   0  0  0  0  0  0  0  0  0  0  0  0
    5.7796    1.4505    0.8656 H   0  0  0  0  0  0  0  0  0  0  0  0
    6.4325   -0.8372    0.1473 H   0  0  0  0  0  0  0  0  0  0  0  0
    5.5813   -2.9117   -0.5166 H   0  0  0  0  0  0  0  0  0  0  0  0
   -2.8952   -4.1161    0.8369 H   0  0  0  0  0  0  0  0  0  0  0  0
   -5.0547   -0.4201    0.7244 H   0  0  0  0  0  0  0  0  0  0  0  0
   -4.5717    2.0975    0.0465 H   0  0  0  0  0  0  0  0  0  0  0  0
   -1.2646    4.3002   -1.5524 H   0  0  0  0  0  0  0  0  0  0  0  0
  1  2  2  0  0  0  0
  2  3  1  0  0  0  0
  2 11  1  0  0  0  0
  3  4  1  0  0  0  0
  3  9  1  0  0  0  0
  4  5  1  0  0  0  0
  4 29  1  0  0  0  0
  5  6  1  0  0  0  0
  5 30  1  0  0  0  0
  6  7  1  0  0  0  0
  6 31  1  0  0  0  0
  7  8  1  0  0  0  0
  7  9  1  0  0  0  0
  8 32  1  0  0  0  0
  9 10  1  0  0  0  0
 10 11  1  0  0  0  0
 11 12  1  0  0  0  0
 12 13  1  0  0  0  0
 12 28  1  0  0  0  0
 13 14  2  0  0  0  0
 13 20  1  0  0  0  0
 14 15  1  0  0  0  0
 14 16  1  0  0  0  0
 16 17  2  0  0  0  0
 16 33  1  0  0  0  0
 17 18  1  0  0  0  0
 17 19  1  0  0  0  0
 19 20  2  0  0  0  0
 19 34  1  0  0  0  0
 20 21  1  0  0  0  0
 21 22  2  0  0  0  0
 21 28  1  0  0  0  0
 22 23  1  0  0  0  0
 22 35  1  0  0  0  0
 23 24  1  0  0  0  0
 23 25  2  0  0  0  0
 25 26  1  0  0  0  0
 25 36  1  0  0  0  0
 26 27  1  0  0  0  0
 26 28  2  0  0  0  0
M  END
> <total energy / Eh>
    -79.830950275043

> <gradient norm / Eh/a0>
      0.000510404106

$$$$
