L83
  xtb     01102303193D
xtb: 6.4.1 (afa7bdf)
 36 40  0     0  0            999 V2000
    1.0231    1.6057   -1.0612 O   0  0  0  0  0  0  0  0  0  0  0  0
    1.3478    0.7619   -0.2352 C   0  0  0  0  0  0  0  0  0  0  0  0
    2.7904    0.6571    0.2045 C   0  0  0  0  0  3  0  0  0  0  0  0
    3.6605    1.6975   -0.0666 C   0  0  0  0  0  3  0  0  0  0  0  0
    4.9885    1.5847    0.3220 C   0  0  0  0  0  3  0  0  0  0  0  0
    5.4150    0.4360    0.9578 C   0  0  0  0  0  3  0  0  0  0  0  0
    4.4848   -0.5791    1.1841 C   0  0  0  0  0  3  0  0  0  0  0  0
    4.8652   -1.7122    1.7781 O   0  0  0  0  0  0  0  0  0  0  0  0
    3.2126   -0.4622    0.8179 N   0  0  0  0  0  0  0  0  0  0  0  0
    1.7009   -1.6293    0.9537 Cu  0  0  0  0  0  2  0  0  0  0  0  0
    0.5732   -0.1323    0.3940 N   0  0  0  0  0  0  0  0  0  0  0  0
   -0.7752   -0.1783    0.0928 N   0  0  0  0  0  0  0  0  0  0  0  0
   -1.6017    0.9172   -0.0357 C   0  0  0  0  0  0  0  0  0  0  0  0
   -1.3671    2.2511    0.2749 C   0  0  0  0  0  0  0  0  0  0  0  0
   -2.3958    3.1457    0.0650 C   0  0  0  0  0  0  0  0  0  0  0  0
   -3.6368    2.7365   -0.4244 C   0  0  0  0  0  0  0  0  0  0  0  0
   -3.8873    1.4092   -0.6968 C   0  0  0  0  0  0  0  0  0  0  0  0
   -2.8663    0.4877   -0.4910 C   0  0  0  0  0  0  0  0  0  0  0  0
   -2.7997   -0.9352   -0.6116 C   0  0  0  0  0  0  0  0  0  0  0  0
   -3.7445   -1.8687   -1.0024 C   0  0  0  0  0  0  0  0  0  0  0  0
   -3.4119   -3.2076   -0.9843 C   0  0  0  0  0  0  0  0  0  0  0  0
   -2.1570   -3.6071   -0.5414 C   0  0  0  0  0  0  0  0  0  0  0  0
   -1.2073   -2.6815   -0.1494 C   0  0  0  0  0  0  0  0  0  0  0  0
    0.4484   -3.4754    0.5624 Br  0  0  0  0  0  0  0  0  0  0  0  0
   -1.4782   -1.3161   -0.2062 C   0  0  0  0  0  0  0  0  0  0  0  0
    3.2789    2.5660   -0.5782 H   0  0  0  0  0  0  0  0  0  0  0  0
    5.6853    2.3857    0.1274 H   0  0  0  0  0  0  0  0  0  0  0  0
    6.4332    0.2919    1.2772 H   0  0  0  0  0  0  0  0  0  0  0  0
    4.1072   -2.3220    1.8407 H   0  0  0  0  0  0  0  0  0  0  0  0
   -0.4180    2.5821    0.6621 H   0  0  0  0  0  0  0  0  0  0  0  0
   -2.2385    4.1901    0.2903 H   0  0  0  0  0  0  0  0  0  0  0  0
   -4.4128    3.4720   -0.5768 H   0  0  0  0  0  0  0  0  0  0  0  0
   -4.8533    1.0844   -1.0534 H   0  0  0  0  0  0  0  0  0  0  0  0
   -4.7252   -1.5421   -1.3108 H   0  0  0  0  0  0  0  0  0  0  0  0
   -4.1238   -3.9571   -1.2903 H   0  0  0  0  0  0  0  0  0  0  0  0
   -1.9145   -4.6561   -0.4890 H   0  0  0  0  0  0  0  0  0  0  0  0
  1  2  2  0  0  0  0
  2  3  1  0  0  0  0
  2 11  1  0  0  0  0
  3  4  1  0  0  0  0
  3  9  1  0  0  0  0
  4  5  1  0  0  0  0
  4 26  1  0  0  0  0
  5  6  1  0  0  0  0
  5 27  1  0  0  0  0
  6  7  1  0  0  0  0
  6 28  1  0  0  0  0
  7  8  1  0  0  0  0
  7  9  1  0  0  0  0
  8 29  1  0  0  0  0
  9 10  1  0  0  0  0
 10 11  1  0  0  0  0
 11 12  1  0  0  0  0
 12 13  1  0  0  0  0
 12 25  1  0  0  0  0
 13 14  2  0  0  0  0
 13 18  1  0  0  0  0
 14 15  1  0  0  0  0
 14 30  1  0  0  0  0
 15 16  2  0  0  0  0
 15 31  1  0  0  0  0
 16 17  1  0  0  0  0
 16 32  1  0  0  0  0
 17 18  2  0  0  0  0
 17 33  1  0  0  0  0
 18 19  1  0  0  0  0
 19 20  2  0  0  0  0
 19 25  1  0  0  0  0
 20 21  1  0  0  0  0
 20 34  1  0  0  0  0
 21 22  2  0  0  0  0
 21 35  1  0  0  0  0
 22 23  1  0  0  0  0
 22 36  1  0  0  0  0
 23 24  1  0  0  0  0
 23 25  2  0  0  0  0
M  END
> <total energy / Eh>
    -69.098342759142

> <gradient norm / Eh/a0>
      0.000626335087

$$$$
