L90
  xtb     01102303193D
xtb: 6.4.1 (afa7bdf)
 37 41  0     0  0            999 V2000
    1.1786   -2.2136    0.9419 O   0  0  0  0  0  0  0  0  0  0  0  0
    1.3161   -1.1341    0.3733 C   0  0  0  0  0  0  0  0  0  0  0  0
    2.6890   -0.7263   -0.1251 C   0  0  0  0  0  3  0  0  0  0  0  0
    3.6876   -1.6822   -0.1987 C   0  0  0  0  0  3  0  0  0  0  0  0
    4.9520   -1.3126   -0.6324 C   0  0  0  0  0  3  0  0  0  0  0  0
    5.1936    0.0038   -0.9754 C   0  0  0  0  0  3  0  0  0  0  0  0
    4.1447    0.9151   -0.8658 C   0  0  0  0  0  3  0  0  0  0  0  0
    4.3462    2.2004   -1.1782 O   0  0  0  0  0  0  0  0  0  0  0  0
    2.9323    0.5588   -0.4515 N   0  0  0  0  0  0  0  0  0  0  0  0
    1.2552    1.5936   -0.1077 Cu  0  0  0  0  0  2  0  0  0  0  0  0
    0.4223   -0.2046    0.0669 N   0  0  0  0  0  0  0  0  0  0  0  0
   -0.9172   -0.2160    0.4580 N   0  0  0  0  0  0  0  0  0  0  0  0
   -1.8490   -1.1336   -0.0469 C   0  0  0  0  0  0  0  0  0  0  0  0
   -1.4899   -2.4104   -0.4581 C   0  0  0  0  0  0  0  0  0  0  0  0
   -2.4480   -3.2954   -0.9258 C   0  0  0  0  0  0  0  0  0  0  0  0
   -3.7749   -2.9195   -0.9969 C   0  0  0  0  0  0  0  0  0  0  0  0
   -4.1472   -1.6441   -0.6002 C   0  0  0  0  0  0  0  0  0  0  0  0
   -3.1964   -0.7560   -0.1328 C   0  0  0  0  0  0  0  0  0  0  0  0
   -3.6438    0.4986    0.2193 O   0  0  0  0  0  0  0  0  0  0  0  0
   -2.7066    1.4075    0.6165 C   0  0  0  0  0  0  0  0  0  0  0  0
   -3.1125    2.7081    0.8329 C   0  0  0  0  0  0  0  0  0  0  0  0
   -2.2022    3.6717    1.2697 C   0  0  0  0  0  0  0  0  0  0  0  0
   -0.9038    3.3164    1.5404 C   0  0  0  0  0  0  0  0  0  0  0  0
   -0.4513    2.0063    1.2966 C   0  0  0  0  0  0  0  0  0  0  0  0
   -1.3642    1.0388    0.8077 C   0  0  0  0  0  0  0  0  0  0  0  0
    3.4472   -2.6924    0.0908 H   0  0  0  0  0  0  0  0  0  0  0  0
    5.7427   -2.0436   -0.7027 H   0  0  0  0  0  0  0  0  0  0  0  0
    6.1543    0.3496   -1.3168 H   0  0  0  0  0  0  0  0  0  0  0  0
    3.5211    2.6997   -1.0545 H   0  0  0  0  0  0  0  0  0  0  0  0
   -0.4636   -2.7230   -0.3788 H   0  0  0  0  0  0  0  0  0  0  0  0
   -2.1452   -4.2848   -1.2318 H   0  0  0  0  0  0  0  0  0  0  0  0
   -4.5235   -3.6066   -1.3596 H   0  0  0  0  0  0  0  0  0  0  0  0
   -5.1724   -1.3138   -0.6547 H   0  0  0  0  0  0  0  0  0  0  0  0
   -4.1449    2.9607    0.6530 H   0  0  0  0  0  0  0  0  0  0  0  0
   -2.5389    4.6839    1.4272 H   0  0  0  0  0  0  0  0  0  0  0  0
   -0.2137    4.0383    1.9508 H   0  0  0  0  0  0  0  0  0  0  0  0
    0.4263    1.6612    1.8498 H   0  0  0  0  0  0  0  0  0  0  0  0
  1  2  2  0  0  0  0
  2  3  1  0  0  0  0
  2 11  1  0  0  0  0
  3  4  1  0  0  0  0
  3  9  1  0  0  0  0
  4  5  1  0  0  0  0
  4 26  1  0  0  0  0
  5  6  1  0  0  0  0
  5 27  1  0  0  0  0
  6  7  1  0  0  0  0
  6 28  1  0  0  0  0
  7  8  1  0  0  0  0
  7  9  1  0  0  0  0
  8 29  1  0  0  0  0
  9 10  1  0  0  0  0
 10 11  1  0  0  0  0
 11 12  1  0  0  0  0
 12 13  1  0  0  0  0
 12 25  1  0  0  0  0
 13 14  2  0  0  0  0
 13 18  1  0  0  0  0
 14 15  1  0  0  0  0
 14 30  1  0  0  0  0
 15 16  2  0  0  0  0
 15 31  1  0  0  0  0
 16 17  1  0  0  0  0
 16 32  1  0  0  0  0
 17 18  2  0  0  0  0
 17 33  1  0  0  0  0
 18 19  1  0  0  0  0
 19 20  1  0  0  0  0
 20 21  2  0  0  0  0
 20 25  1  0  0  0  0
 21 22  1  0  0  0  0
 21 34  1  0  0  0  0
 22 23  2  0  0  0  0
 22 35  1  0  0  0  0
 23 24  1  0  0  0  0
 23 36  1  0  0  0  0
 24 25  2  0  0  0  0
 24 37  1  0  0  0  0
M  END
> <total energy / Eh>
    -69.556810829901

> <gradient norm / Eh/a0>
      0.000375434098

$$$$
